* PEX produced on Fri Mar 22 11:45:11 AM CET 2024 using /foss/tools/osic-multitool/iic-pex.sh with m=1 and s=1
* NGSPICE file created from tdc_ring.ext - technology: sky130A

.subckt tdc_ring dbg_delay_stop dbg_dly_sig[0] dbg_dly_sig[11] dbg_dly_sig[13] dbg_dly_sig[2]
+ dbg_dly_sig[4] dbg_dly_sig[5] dbg_dly_sig[6] dbg_dly_sig[7] dbg_dly_sig[8] dbg_dly_sig[9]
+ dbg_ring_ctr[0] dbg_ring_ctr[1] dbg_ring_ctr[2] i_start i_stop o_result_ctr[0] o_result_ctr[2]
+ o_result_ring[0] o_result_ring[10] o_result_ring[12] o_result_ring[13] o_result_ring[14]
+ o_result_ring[15] o_result_ring[2] o_result_ring[5] o_result_ring[8] o_result_ring[7]
+ o_result_ring[4] o_result_ring[1] dbg_dly_sig[10] dbg_dly_sig[15] o_result_ring[9]
+ o_result_ring[6] o_result_ring[11] o_result_ctr[1] o_result_ring[3] dbg_dly_sig[12]
+ dbg_dly_sig[14] dbg_dly_sig[1] dbg_dly_sig[3] dbg_start_pulse VGND VPWR
X0 VGND a_21362_9839# clknet_1_1__leaf_w_dly_sig1_n_ana_[9] VGND sky130_fd_pr__nfet_01v8 ad=0.0588 pd=0.7 as=0.0588 ps=0.7 w=0.42 l=0.15
X1 r_dly_store_ring[12] a_24887_8475# VPWR VPWR sky130_fd_pr__pfet_01v8_hvt ad=0.26 pd=2.52 as=0.135 ps=1.27 w=1 l=0.15
X2 clknet_2_0__leaf_w_dly_stop a_11689_7093# VPWR VPWR sky130_fd_pr__pfet_01v8_hvt ad=0.14 pd=1.28 as=0.14 ps=1.28 w=1 l=0.15
X7 a_14082_9661# a_13809_9295# a_13997_9295# VPWR sky130_fd_pr__pfet_01v8_hvt ad=0.0683 pd=0.745 as=0.0578 ps=0.695 w=0.42 l=0.15
X8 VGND a_17038_10927# clknet_1_1__leaf_w_dly_sig1_n_ana_[7] VGND sky130_fd_pr__nfet_01v8 ad=0.0588 pd=0.7 as=0.0588 ps=0.7 w=0.42 l=0.15
X9 VPWR a_21362_7663# clknet_0_w_dly_sig1_n_ana_[10] VPWR sky130_fd_pr__pfet_01v8_hvt ad=0.14 pd=1.28 as=0.14 ps=1.28 w=1 l=0.15
X11 VPWR clknet_1_1__leaf_i_stop a_22015_10383# VPWR sky130_fd_pr__pfet_01v8_hvt ad=0.0864 pd=0.91 as=0.166 ps=1.8 w=0.64 l=0.15
X12 VPWR a_9849_7093# clknet_1_0__leaf_w_dly_sig1_n_ana_[4] VPWR sky130_fd_pr__pfet_01v8_hvt ad=0.14 pd=1.28 as=0.14 ps=1.28 w=1 l=0.15
X14 VGND r_dly_store_ring[0] a_16127_9839# VGND sky130_fd_pr__nfet_01v8 ad=0.0703 pd=0.755 as=0.111 ps=1.37 w=0.42 l=0.15
X16 net3 clknet_2_2__leaf_w_dly_stop VPWR VPWR sky130_fd_pr__pfet_01v8_hvt ad=0.135 pd=1.27 as=0.26 ps=2.52 w=1 l=0.15
X17 a_22470_7119# a_22155_7271# VGND VGND sky130_fd_pr__nfet_01v8 ad=0.066 pd=0.745 as=0.109 ps=1.36 w=0.42 l=0.15
X18 VPWR a_17682_12015# clknet_0_w_ring_ctr_clk VPWR sky130_fd_pr__pfet_01v8_hvt ad=0.14 pd=1.28 as=0.14 ps=1.28 w=1 l=0.15
X19 VGND a_16210_6575# clknet_1_1__leaf_w_dly_sig1_n_ana_[2] VGND sky130_fd_pr__nfet_01v8 ad=0.0588 pd=0.7 as=0.0588 ps=0.7 w=0.42 l=0.15
X22 VPWR clknet_0_w_dly_sig1_n_ana_[1] a_16854_10383# VPWR sky130_fd_pr__pfet_01v8_hvt ad=0.14 pd=1.28 as=0.14 ps=1.28 w=1 l=0.15
X24 _04_ a_13054_11445# VPWR VPWR sky130_fd_pr__pfet_01v8_hvt ad=0.135 pd=1.27 as=0.26 ps=2.52 w=1 l=0.15
X25 net22 w_dly_sig2_n_ana_[2] VPWR VPWR sky130_fd_pr__pfet_01v8_hvt ad=0.135 pd=1.27 as=0.26 ps=2.52 w=1 l=0.15
X27 clknet_2_2__leaf_w_dly_stop a_14278_7663# VGND VGND sky130_fd_pr__nfet_01v8 ad=0.0588 pd=0.7 as=0.0578 ps=0.695 w=0.42 l=0.15
X30 r_dly_store_ring[2] a_14675_9563# VPWR VPWR sky130_fd_pr__pfet_01v8_hvt ad=0.26 pd=2.52 as=0.135 ps=1.27 w=1 l=0.15
X31 net7 clknet_2_2__leaf_w_dly_stop VPWR VPWR sky130_fd_pr__pfet_01v8_hvt ad=0.135 pd=1.27 as=0.26 ps=2.52 w=1 l=0.15
X32 clknet_1_0__leaf_w_dly_sig1_n_ana_[6] a_13713_6005# VGND VGND sky130_fd_pr__nfet_01v8 ad=0.0588 pd=0.7 as=0.0588 ps=0.7 w=0.42 l=0.15
X33 VPWR net79 _06_ VPWR sky130_fd_pr__pfet_01v8_hvt ad=0.16 pd=1.32 as=0.14 ps=1.28 w=1 l=0.15
X34 VGND a_20613_9269# clknet_0_w_dly_sig1_n_ana_[12] VGND sky130_fd_pr__nfet_01v8 ad=0.0578 pd=0.695 as=0.0588 ps=0.7 w=0.42 l=0.15
X35 o_result_ring[6] a_16127_5487# VGND VGND sky130_fd_pr__nfet_01v8 ad=0.0588 pd=0.7 as=0.0588 ps=0.7 w=0.42 l=0.15
X36 VPWR a_14081_11445# clknet_1_0__leaf_w_dly_sig1_n_ana_[15] VPWR sky130_fd_pr__pfet_01v8_hvt ad=0.138 pd=1.27 as=0.14 ps=1.28 w=1 l=0.15
X37 clknet_1_1__leaf_w_dly_sig1_n_ana_[14] a_19430_11471# VGND VGND sky130_fd_pr__nfet_01v8 ad=0.0588 pd=0.7 as=0.0588 ps=0.7 w=0.42 l=0.15
X38 a_12415_10357# clknet_1_0__leaf_i_stop VGND VGND sky130_fd_pr__nfet_01v8 ad=0.109 pd=1.36 as=0.0567 ps=0.69 w=0.42 l=0.15
X39 VPWR clknet_1_1__leaf_w_dly_sig1_n_ana_[5] net35 VPWR sky130_fd_pr__pfet_01v8_hvt ad=0.26 pd=2.52 as=0.135 ps=1.27 w=1 l=0.15
X40 VPWR a_19154_7663# clknet_0_w_dly_sig1_n_ana_[8] VPWR sky130_fd_pr__pfet_01v8_hvt ad=0.138 pd=1.27 as=0.14 ps=1.28 w=1 l=0.15
X41 clknet_1_1__leaf_w_dly_sig1_n_ana_[2] a_16210_6575# VPWR VPWR sky130_fd_pr__pfet_01v8_hvt ad=0.14 pd=1.28 as=0.14 ps=1.28 w=1 l=0.15
X42 clknet_1_0__leaf_w_dly_sig1_n_ana_[9] a_20626_4943# VPWR VPWR sky130_fd_pr__pfet_01v8_hvt ad=0.14 pd=1.28 as=0.14 ps=1.28 w=1 l=0.15
X44 clknet_2_1__leaf_w_dly_stop a_11045_10901# VPWR VPWR sky130_fd_pr__pfet_01v8_hvt ad=0.14 pd=1.28 as=0.14 ps=1.28 w=1 l=0.15
X45 VPWR a_16854_10383# clknet_1_1__leaf_w_dly_sig1_n_ana_[1] VPWR sky130_fd_pr__pfet_01v8_hvt ad=0.14 pd=1.28 as=0.14 ps=1.28 w=1 l=0.15
X48 VPWR a_21270_11471# clknet_1_0__leaf_w_dly_sig1_n_ana_[11] VPWR sky130_fd_pr__pfet_01v8_hvt ad=0.14 pd=1.28 as=0.14 ps=1.28 w=1 l=0.15
X49 VPWR a_18795_10927# o_result_ctr[0] VPWR sky130_fd_pr__pfet_01v8_hvt ad=0.14 pd=1.28 as=0.14 ps=1.28 w=1 l=0.15
X50 VGND net65 a_24837_9295# VGND sky130_fd_pr__nfet_01v8 ad=0.109 pd=1.36 as=0.0813 ps=0.83 w=0.42 l=0.15
X51 o_result_ring[0] a_16127_9839# VGND VGND sky130_fd_pr__nfet_01v8 ad=0.0588 pd=0.7 as=0.0588 ps=0.7 w=0.42 l=0.15
X52 clknet_2_3__leaf_w_dly_stop a_20626_8207# VGND VGND sky130_fd_pr__nfet_01v8 ad=0.0588 pd=0.7 as=0.0588 ps=0.7 w=0.42 l=0.15
X53 VPWR clknet_0_w_dly_stop a_14278_7663# VPWR sky130_fd_pr__pfet_01v8_hvt ad=0.14 pd=1.28 as=0.14 ps=1.28 w=1 l=0.15
X54 VPWR a_23202_7663# clknet_1_1__leaf_w_dly_sig1_n_ana_[11] VPWR sky130_fd_pr__pfet_01v8_hvt ad=0.14 pd=1.28 as=0.14 ps=1.28 w=1 l=0.15
X57 a_9861_10927# clknet_2_1__leaf_w_dly_stop w_dly_sig2_n_ana_[12] VPWR sky130_fd_pr__pfet_01v8_hvt ad=0.105 pd=1.21 as=0.26 ps=2.52 w=1 l=0.15
X58 a_12040_9813# clknet_2_0__leaf_w_dly_stop VGND VGND sky130_fd_pr__nfet_01v8 ad=0.109 pd=1.36 as=0.097 ps=0.975 w=0.42 l=0.15
X60 clknet_1_0__leaf_w_dly_sig1_n_ana_[5] a_14081_5461# VGND VGND sky130_fd_pr__nfet_01v8 ad=0.0588 pd=0.7 as=0.111 ps=1.37 w=0.42 l=0.15
X61 a_22879_10749# a_22181_10383# a_22622_10495# VGND sky130_fd_pr__nfet_01v8 ad=0.0684 pd=0.74 as=0.0989 ps=0.995 w=0.36 l=0.15
X62 VGND clknet_1_1__leaf_w_dly_sig1_n_ana_[2] net25 VGND sky130_fd_pr__nfet_01v8 ad=0.169 pd=1.82 as=0.0878 ps=0.92 w=0.65 l=0.15
X64 a_12035_6183# a_12131_6005# VPWR VPWR sky130_fd_pr__pfet_01v8_hvt ad=0.27 pd=2.54 as=0.135 ps=1.27 w=1 l=0.15
X66 VGND clknet_0_w_dly_stop a_11045_10901# VGND sky130_fd_pr__nfet_01v8 ad=0.111 pd=1.37 as=0.0588 ps=0.7 w=0.42 l=0.15
X67 a_22454_10749# a_22015_10383# a_22369_10383# VGND sky130_fd_pr__nfet_01v8 ad=0.0621 pd=0.705 as=0.0813 ps=0.83 w=0.36 l=0.15
X69 clknet_1_0__leaf_w_ring_ctr_clk a_14909_12533# VPWR VPWR sky130_fd_pr__pfet_01v8_hvt ad=0.14 pd=1.28 as=0.14 ps=1.28 w=1 l=0.15
X70 clknet_1_1__leaf_w_dly_sig1_n_ana_[7] a_17038_10927# VGND VGND sky130_fd_pr__nfet_01v8 ad=0.0588 pd=0.7 as=0.0588 ps=0.7 w=0.42 l=0.15
X71 a_23903_9447# a_23999_9269# VPWR VPWR sky130_fd_pr__pfet_01v8_hvt ad=0.27 pd=2.54 as=0.135 ps=1.27 w=1 l=0.15
X72 a_14909_12533# clknet_0_w_ring_ctr_clk VPWR VPWR sky130_fd_pr__pfet_01v8_hvt ad=0.14 pd=1.28 as=0.14 ps=1.28 w=1 l=0.15
X73 a_17493_9295# net73 VGND VGND sky130_fd_pr__nfet_01v8 ad=0.0813 pd=0.83 as=0.109 ps=1.36 w=0.42 l=0.15
X74 clknet_1_0__leaf_w_dly_sig1_n_ana_[3] a_9849_8181# VGND VGND sky130_fd_pr__nfet_01v8 ad=0.0588 pd=0.7 as=0.0578 ps=0.695 w=0.42 l=0.15
X75 VPWR a_17314_7663# clknet_0_w_dly_sig1_n_ana_[7] VPWR sky130_fd_pr__pfet_01v8_hvt ad=0.138 pd=1.27 as=0.14 ps=1.28 w=1 l=0.15
X76 net6 clknet_2_0__leaf_w_dly_stop VGND VGND sky130_fd_pr__nfet_01v8 ad=0.0878 pd=0.92 as=0.169 ps=1.82 w=0.65 l=0.15
X77 VGND a_20626_12559# clknet_1_1__leaf_w_ring_ctr_clk VGND sky130_fd_pr__nfet_01v8 ad=0.0588 pd=0.7 as=0.0588 ps=0.7 w=0.42 l=0.15
X78 VGND a_17682_12015# clknet_0_w_ring_ctr_clk VGND sky130_fd_pr__nfet_01v8 ad=0.0588 pd=0.7 as=0.0588 ps=0.7 w=0.42 l=0.15
X81 clknet_1_1__leaf_w_dly_sig1_n_ana_[4] a_11689_9269# VPWR VPWR sky130_fd_pr__pfet_01v8_hvt ad=0.14 pd=1.28 as=0.14 ps=1.28 w=1 l=0.15
X83 VPWR a_13059_11187# o_result_ring[1] VPWR sky130_fd_pr__pfet_01v8_hvt ad=0.14 pd=1.28 as=0.14 ps=1.28 w=1 l=0.15
X87 _86_.X a_12040_9813# VPWR VPWR sky130_fd_pr__pfet_01v8_hvt ad=0.135 pd=1.27 as=0.265 ps=2.53 w=1 l=0.15
X89 a_14457_4399# net37 VGND VGND sky130_fd_pr__nfet_01v8 ad=0.0813 pd=0.83 as=0.109 ps=1.36 w=0.42 l=0.15
X90 a_15427_10927# a_14729_10933# a_15170_10901# VGND sky130_fd_pr__nfet_01v8 ad=0.0684 pd=0.74 as=0.0989 ps=0.995 w=0.36 l=0.15
X91 clknet_0_w_dly_sig1_n_ana_[13] a_19430_10927# VGND VGND sky130_fd_pr__nfet_01v8 ad=0.0588 pd=0.7 as=0.0588 ps=0.7 w=0.42 l=0.15
X92 a_22443_8181# r_dly_store_ring[12] VGND VGND sky130_fd_pr__nfet_01v8 ad=0.111 pd=1.37 as=0.0703 ps=0.755 w=0.42 l=0.15
X94 VGND a_20337_7093# clknet_0_w_dly_sig1_n_ana_[11] VGND sky130_fd_pr__nfet_01v8 ad=0.0588 pd=0.7 as=0.0588 ps=0.7 w=0.42 l=0.15
X98 clknet_1_0__leaf_w_dly_sig1_n_ana_[1] a_12425_9813# VPWR VPWR sky130_fd_pr__pfet_01v8_hvt ad=0.14 pd=1.28 as=0.14 ps=1.28 w=1 l=0.15
X99 a_17314_5487# clknet_0_w_dly_sig1_n_ana_[7] VPWR VPWR sky130_fd_pr__pfet_01v8_hvt ad=0.14 pd=1.28 as=0.265 ps=2.53 w=1 l=0.15
X101 VGND a_14462_8181# a_14391_8207# VGND sky130_fd_pr__nfet_01v8 ad=0.121 pd=1.09 as=0.0989 ps=0.995 w=0.64 l=0.15
X102 clknet_1_0__leaf_w_dly_sig1_n_ana_[11] a_21270_11471# VPWR VPWR sky130_fd_pr__pfet_01v8_hvt ad=0.14 pd=1.28 as=0.14 ps=1.28 w=1 l=0.15
X103 VGND clknet_1_0__leaf_i_stop a_9595_9295# VGND sky130_fd_pr__nfet_01v8 ad=0.0754 pd=0.81 as=0.135 ps=1.56 w=0.52 l=0.15
X104 VGND a_11689_9269# clknet_1_1__leaf_w_dly_sig1_n_ana_[4] VGND sky130_fd_pr__nfet_01v8 ad=0.0588 pd=0.7 as=0.0588 ps=0.7 w=0.42 l=0.15
X105 VPWR a_15185_9269# clknet_1_0__leaf_w_dly_sig1_n_ana_[14] VPWR sky130_fd_pr__pfet_01v8_hvt ad=0.14 pd=1.28 as=0.14 ps=1.28 w=1 l=0.15
X106 VGND clknet_0_w_dly_sig1_n_ana_[11] a_23202_7663# VGND sky130_fd_pr__nfet_01v8 ad=0.0588 pd=0.7 as=0.0588 ps=0.7 w=0.42 l=0.15
X107 VGND a_17314_5487# clknet_1_0__leaf_w_dly_sig1_n_ana_[7] VGND sky130_fd_pr__nfet_01v8 ad=0.111 pd=1.37 as=0.0588 ps=0.7 w=0.42 l=0.15
X109 VPWR w_dly_sig2_n_ana_[11] net58 VPWR sky130_fd_pr__pfet_01v8_hvt ad=0.26 pd=2.52 as=0.135 ps=1.27 w=1 l=0.15
X110 VGND a_13059_11187# o_result_ring[1] VGND sky130_fd_pr__nfet_01v8 ad=0.0703 pd=0.755 as=0.0588 ps=0.7 w=0.42 l=0.15
X111 clknet_0_w_dly_sig1_n_ana_[14] a_18773_9269# VPWR VPWR sky130_fd_pr__pfet_01v8_hvt ad=0.14 pd=1.28 as=0.14 ps=1.28 w=1 l=0.15
X114 VGND clknet_1_1__leaf_w_dly_sig1_n_ana_[3] net27 VGND sky130_fd_pr__nfet_01v8 ad=0.169 pd=1.82 as=0.0878 ps=0.92 w=0.65 l=0.15
X115 clknet_1_0__leaf_w_dly_sig1_n_ana_[2] a_11689_8181# VGND VGND sky130_fd_pr__nfet_01v8 ad=0.0588 pd=0.7 as=0.0588 ps=0.7 w=0.42 l=0.15
X117 clknet_0_w_dly_sig1_n_ana_[9] a_19982_6031# VPWR VPWR sky130_fd_pr__pfet_01v8_hvt ad=0.14 pd=1.28 as=0.14 ps=1.28 w=1 l=0.15
X118 a_15925_6031# a_15759_6031# VGND VGND sky130_fd_pr__nfet_01v8 ad=0.109 pd=1.36 as=0.0567 ps=0.69 w=0.42 l=0.15
X119 VPWR a_18878_8751# clknet_1_1__leaf_w_dly_sig1_n_ana_[6] VPWR sky130_fd_pr__pfet_01v8_hvt ad=0.14 pd=1.28 as=0.14 ps=1.28 w=1 l=0.15
X120 VPWR a_17746_8319# a_17673_8573# VPWR sky130_fd_pr__pfet_01v8_hvt ad=0.179 pd=1.26 as=0.0767 ps=0.785 w=0.42 l=0.15
X121 a_18773_8181# clknet_0_w_dly_sig1_n_ana_[10] VPWR VPWR sky130_fd_pr__pfet_01v8_hvt ad=0.14 pd=1.28 as=0.14 ps=1.28 w=1 l=0.15
X123 VGND a_20626_4943# clknet_1_0__leaf_w_dly_sig1_n_ana_[9] VGND sky130_fd_pr__nfet_01v8 ad=0.0578 pd=0.695 as=0.0588 ps=0.7 w=0.42 l=0.15
X124 clknet_0_w_dly_sig1_n_ana_[9] a_19982_6031# VGND VGND sky130_fd_pr__nfet_01v8 ad=0.0588 pd=0.7 as=0.0578 ps=0.695 w=0.42 l=0.15
X129 clknet_0_w_dly_sig1_n_ana_[4] a_12438_6575# VGND VGND sky130_fd_pr__nfet_01v8 ad=0.0588 pd=0.7 as=0.0588 ps=0.7 w=0.42 l=0.15
X130 VPWR clknet_2_0__leaf_w_dly_stop net10 VPWR sky130_fd_pr__pfet_01v8_hvt ad=0.26 pd=2.52 as=0.135 ps=1.27 w=1 l=0.15
X131 a_15553_4943# a_14563_4943# a_15427_5309# VGND sky130_fd_pr__nfet_01v8 ad=0.066 pd=0.745 as=0.0684 ps=0.74 w=0.36 l=0.15
X134 clknet_0_w_ring_ctr_clk a_17682_12015# VGND VGND sky130_fd_pr__nfet_01v8 ad=0.0588 pd=0.7 as=0.0588 ps=0.7 w=0.42 l=0.15
X137 dbg_start_pulse w_strt_pulse_n VPWR VPWR sky130_fd_pr__pfet_01v8_hvt ad=0.14 pd=1.28 as=0.14 ps=1.28 w=1 l=0.15
X138 VPWR clknet_2_3__leaf_w_dly_stop net11 VPWR sky130_fd_pr__pfet_01v8_hvt ad=0.26 pd=2.52 as=0.135 ps=1.27 w=1 l=0.15
X139 VPWR clknet_1_0__leaf_w_dly_sig1_n_ana_[12] net63 VPWR sky130_fd_pr__pfet_01v8_hvt ad=0.26 pd=2.52 as=0.135 ps=1.27 w=1 l=0.15
X140 VPWR clknet_1_0__leaf_w_dly_sig1_n_ana_[8] net49 VPWR sky130_fd_pr__pfet_01v8_hvt ad=0.26 pd=2.52 as=0.135 ps=1.27 w=1 l=0.15
X142 a_12415_6005# clknet_1_0__leaf_i_stop VGND VGND sky130_fd_pr__nfet_01v8 ad=0.109 pd=1.36 as=0.0567 ps=0.69 w=0.42 l=0.15
X143 VPWR w_dly_sig1_n_ana_[15] a_16565_11445# VPWR sky130_fd_pr__pfet_01v8_hvt ad=0.14 pd=1.28 as=0.14 ps=1.28 w=1 l=0.15
X144 VPWR a_17025_8725# clknet_0_i_stop VPWR sky130_fd_pr__pfet_01v8_hvt ad=0.14 pd=1.28 as=0.14 ps=1.28 w=1 l=0.15
X145 VPWR clknet_1_0__leaf_w_dly_sig1_n_ana_[9] net52 VPWR sky130_fd_pr__pfet_01v8_hvt ad=0.26 pd=2.52 as=0.135 ps=1.27 w=1 l=0.15
X149 VPWR a_12438_6575# clknet_0_w_dly_sig1_n_ana_[4] VPWR sky130_fd_pr__pfet_01v8_hvt ad=0.265 pd=2.53 as=0.14 ps=1.28 w=1 l=0.15
X150 clknet_0_w_dly_sig1_n_ana_[1] a_15382_8207# VGND VGND sky130_fd_pr__nfet_01v8 ad=0.0588 pd=0.7 as=0.0588 ps=0.7 w=0.42 l=0.15
X151 a_16210_6575# clknet_0_w_dly_sig1_n_ana_[2] VGND VGND sky130_fd_pr__nfet_01v8 ad=0.0588 pd=0.7 as=0.0588 ps=0.7 w=0.42 l=0.15
X153 VGND a_21150_10495# a_21108_10383# VGND sky130_fd_pr__nfet_01v8 ad=0.121 pd=1.09 as=0.0696 ps=0.765 w=0.42 l=0.15
X154 VGND clknet_2_0__leaf_w_dly_stop dbg_delay_stop VGND sky130_fd_pr__nfet_01v8 ad=0.169 pd=1.82 as=0.0878 ps=0.92 w=0.65 l=0.15
X155 clknet_1_0__leaf_w_dly_sig1_n_ana_[10] a_18773_8181# VGND VGND sky130_fd_pr__nfet_01v8 ad=0.0588 pd=0.7 as=0.0588 ps=0.7 w=0.42 l=0.15
X156 clknet_1_1__leaf_w_dly_sig1_n_ana_[3] a_14646_7119# VGND VGND sky130_fd_pr__nfet_01v8 ad=0.0588 pd=0.7 as=0.0588 ps=0.7 w=0.42 l=0.15
X157 VGND a_13713_6005# clknet_1_0__leaf_w_dly_sig1_n_ana_[6] VGND sky130_fd_pr__nfet_01v8 ad=0.0588 pd=0.7 as=0.0588 ps=0.7 w=0.42 l=0.15
X160 clknet_1_1__leaf_w_dly_sig1_n_ana_[13] a_21362_10927# VPWR VPWR sky130_fd_pr__pfet_01v8_hvt ad=0.14 pd=1.28 as=0.14 ps=1.28 w=1 l=0.15
X161 VPWR a_21362_9839# clknet_1_1__leaf_w_dly_sig1_n_ana_[9] VPWR sky130_fd_pr__pfet_01v8_hvt ad=0.14 pd=1.28 as=0.14 ps=1.28 w=1 l=0.15
X162 VPWR a_14250_9407# a_14177_9661# VPWR sky130_fd_pr__pfet_01v8_hvt ad=0.179 pd=1.26 as=0.0767 ps=0.785 w=0.42 l=0.15
X164 VGND a_11863_6835# o_result_ring[5] VGND sky130_fd_pr__nfet_01v8 ad=0.0703 pd=0.755 as=0.0588 ps=0.7 w=0.42 l=0.15
X165 VGND net74 a_12539_11471# VGND sky130_fd_pr__nfet_01v8 ad=0.0878 pd=0.92 as=0.169 ps=1.82 w=0.65 l=0.15
X166 VGND a_12438_7663# clknet_0_w_dly_sig1_n_ana_[3] VGND sky130_fd_pr__nfet_01v8 ad=0.0588 pd=0.7 as=0.0588 ps=0.7 w=0.42 l=0.15
X168 clknet_0_w_dly_sig1_n_ana_[5] a_14278_6575# VGND VGND sky130_fd_pr__nfet_01v8 ad=0.0588 pd=0.7 as=0.0588 ps=0.7 w=0.42 l=0.15
X170 VGND a_12425_9813# clknet_1_0__leaf_w_dly_sig1_n_ana_[1] VGND sky130_fd_pr__nfet_01v8 ad=0.0588 pd=0.7 as=0.0588 ps=0.7 w=0.42 l=0.15
X171 o_result_ring[4] a_11863_9011# VGND VGND sky130_fd_pr__nfet_01v8 ad=0.0588 pd=0.7 as=0.122 ps=1.42 w=0.42 l=0.15
X174 VPWR a_14988_12233# a_14998_12137# VPWR sky130_fd_pr__pfet_01v8_hvt ad=0.0864 pd=0.91 as=0.166 ps=1.8 w=0.64 l=0.15
X175 VGND clknet_2_3__leaf_w_dly_stop net15 VGND sky130_fd_pr__nfet_01v8 ad=0.169 pd=1.82 as=0.0878 ps=0.92 w=0.65 l=0.15
X177 VGND clknet_0_w_dly_sig1_n_ana_[6] a_18878_8751# VGND sky130_fd_pr__nfet_01v8 ad=0.0588 pd=0.7 as=0.0588 ps=0.7 w=0.42 l=0.15
X179 VGND w_dly_sig2_n_ana_[1] net18 VGND sky130_fd_pr__nfet_01v8 ad=0.169 pd=1.82 as=0.0878 ps=0.92 w=0.65 l=0.15
X180 clknet_1_1__leaf_i_stop a_21362_8751# VGND VGND sky130_fd_pr__nfet_01v8 ad=0.0588 pd=0.7 as=0.0588 ps=0.7 w=0.42 l=0.15
X181 a_14278_7663# clknet_0_w_dly_stop VPWR VPWR sky130_fd_pr__pfet_01v8_hvt ad=0.14 pd=1.28 as=0.265 ps=2.53 w=1 l=0.15
X182 clknet_1_1__leaf_w_dly_sig1_n_ana_[3] a_14646_7119# VPWR VPWR sky130_fd_pr__pfet_01v8_hvt ad=0.14 pd=1.28 as=0.14 ps=1.28 w=1 l=0.15
X184 a_17673_8573# a_17139_8207# a_17578_8573# VPWR sky130_fd_pr__pfet_01v8_hvt ad=0.0767 pd=0.785 as=0.0683 ps=0.745 w=0.42 l=0.15
X185 clknet_1_1__leaf_w_dly_sig1_n_ana_[3] a_14646_7119# VGND VGND sky130_fd_pr__nfet_01v8 ad=0.0588 pd=0.7 as=0.0588 ps=0.7 w=0.42 l=0.15
X190 VGND clknet_0_w_dly_sig1_n_ana_[1] a_16854_10383# VGND sky130_fd_pr__nfet_01v8 ad=0.0588 pd=0.7 as=0.0588 ps=0.7 w=0.42 l=0.15
X191 VPWR clknet_0_w_dly_sig1_n_ana_[13] a_16749_9813# VPWR sky130_fd_pr__pfet_01v8_hvt ad=0.265 pd=2.53 as=0.14 ps=1.28 w=1 l=0.15
X192 clknet_1_0__leaf_i_stop a_12425_8725# VPWR VPWR sky130_fd_pr__pfet_01v8_hvt ad=0.14 pd=1.28 as=0.14 ps=1.28 w=1 l=0.15
X193 clknet_1_0__leaf_w_dly_sig1_n_ana_[8] a_18773_4917# VPWR VPWR sky130_fd_pr__pfet_01v8_hvt ad=0.14 pd=1.28 as=0.14 ps=1.28 w=1 l=0.15
X196 clknet_0_w_dly_sig1_n_ana_[14] a_18773_9269# VGND VGND sky130_fd_pr__nfet_01v8 ad=0.0588 pd=0.7 as=0.0588 ps=0.7 w=0.42 l=0.15
X197 VPWR a_18786_12559# clknet_1_1__leaf_w_dly_sig1_n_ana_[15] VPWR sky130_fd_pr__pfet_01v8_hvt ad=0.138 pd=1.27 as=0.14 ps=1.28 w=1 l=0.15
X198 clknet_1_1__leaf_w_dly_sig1_n_ana_[15] a_18786_12559# VGND VGND sky130_fd_pr__nfet_01v8 ad=0.0588 pd=0.7 as=0.0588 ps=0.7 w=0.42 l=0.15
X199 _03_ a_13743_12131# VGND VGND sky130_fd_pr__nfet_01v8 ad=0.176 pd=1.84 as=0.102 ps=0.99 w=0.65 l=0.15
X200 clknet_1_0__leaf_w_dly_sig1_n_ana_[3] a_9849_8181# VPWR VPWR sky130_fd_pr__pfet_01v8_hvt ad=0.14 pd=1.28 as=0.14 ps=1.28 w=1 l=0.15
X201 net39 clknet_1_1__leaf_w_dly_sig1_n_ana_[6] VGND VGND sky130_fd_pr__nfet_01v8 ad=0.0878 pd=0.92 as=0.169 ps=1.82 w=0.65 l=0.15
X202 net40 clknet_1_0__leaf_w_dly_sig1_n_ana_[6] VGND VGND sky130_fd_pr__nfet_01v8 ad=0.0878 pd=0.92 as=0.169 ps=1.82 w=0.65 l=0.15
X203 a_19047_13335# a_19215_13335# VGND VGND sky130_fd_pr__nfet_01v8 ad=0.169 pd=1.82 as=0.0878 ps=0.92 w=0.65 l=0.15
X205 a_14967_4399# a_14103_4405# a_14710_4373# VPWR sky130_fd_pr__pfet_01v8_hvt ad=0.0567 pd=0.69 as=0.109 ps=1.08 w=0.42 l=0.15
X207 o_result_ring[13] a_22995_9269# VPWR VPWR sky130_fd_pr__pfet_01v8_hvt ad=0.14 pd=1.28 as=0.3 ps=2.6 w=1 l=0.15
X208 VPWR _00_ a_15562_12393# VPWR sky130_fd_pr__pfet_01v8_hvt ad=0.109 pd=1.36 as=0.0672 ps=0.74 w=0.42 l=0.15
X209 VGND a_19430_11471# clknet_1_1__leaf_w_dly_sig1_n_ana_[14] VGND sky130_fd_pr__nfet_01v8 ad=0.0588 pd=0.7 as=0.0588 ps=0.7 w=0.42 l=0.15
X210 VGND a_16749_9813# clknet_1_0__leaf_w_dly_sig1_n_ana_[13] VGND sky130_fd_pr__nfet_01v8 ad=0.0588 pd=0.7 as=0.0588 ps=0.7 w=0.42 l=0.15
X211 VGND a_18589_9813# clknet_1_0__leaf_w_dly_sig1_n_ana_[12] VGND sky130_fd_pr__nfet_01v8 ad=0.0588 pd=0.7 as=0.0588 ps=0.7 w=0.42 l=0.15
X212 VPWR a_14278_9839# clknet_0_w_dly_stop VPWR sky130_fd_pr__pfet_01v8_hvt ad=0.14 pd=1.28 as=0.14 ps=1.28 w=1 l=0.15
X213 a_13971_8181# a_14255_8181# a_14190_8207# VGND sky130_fd_pr__nfet_01v8 ad=0.0684 pd=0.74 as=0.066 ps=0.745 w=0.36 l=0.15
X215 VPWR a_15170_10901# a_15097_10927# VPWR sky130_fd_pr__pfet_01v8_hvt ad=0.179 pd=1.26 as=0.0767 ps=0.785 w=0.42 l=0.15
X216 VGND net46 w_dly_sig2_n_ana_[9] VGND sky130_fd_pr__nfet_01v8 ad=0.169 pd=1.82 as=0.0878 ps=0.92 w=0.65 l=0.15
X218 clknet_1_1__leaf_w_dly_sig1_n_ana_[7] a_17038_10927# VPWR VPWR sky130_fd_pr__pfet_01v8_hvt ad=0.14 pd=1.28 as=0.14 ps=1.28 w=1 l=0.15
X221 VGND a_17714_12812# r_ring_ctr[1] VGND sky130_fd_pr__nfet_01v8 ad=0.0926 pd=0.935 as=0.0878 ps=0.92 w=0.65 l=0.15
X224 VPWR a_14278_6575# clknet_0_w_dly_sig1_n_ana_[5] VPWR sky130_fd_pr__pfet_01v8_hvt ad=0.14 pd=1.28 as=0.14 ps=1.28 w=1 l=0.15
X225 a_24639_9295# a_24419_9295# VGND VGND sky130_fd_pr__nfet_01v8 ad=0.0696 pd=0.765 as=0.121 ps=1.09 w=0.42 l=0.15
X229 w_dly_sig2_n_ana_[7] net38 VGND VGND sky130_fd_pr__nfet_01v8 ad=0.0878 pd=0.92 as=0.169 ps=1.82 w=0.65 l=0.15
X231 VPWR a_11689_9269# clknet_1_1__leaf_w_dly_sig1_n_ana_[4] VPWR sky130_fd_pr__pfet_01v8_hvt ad=0.138 pd=1.27 as=0.14 ps=1.28 w=1 l=0.15
X232 VGND a_19430_10927# clknet_0_w_dly_sig1_n_ana_[13] VGND sky130_fd_pr__nfet_01v8 ad=0.0588 pd=0.7 as=0.0588 ps=0.7 w=0.42 l=0.15
X233 clknet_1_0__leaf_w_dly_sig1_n_ana_[1] a_12425_9813# VGND VGND sky130_fd_pr__nfet_01v8 ad=0.0588 pd=0.7 as=0.0588 ps=0.7 w=0.42 l=0.15
X235 clknet_0_w_dly_sig1_n_ana_[6] a_16486_7119# VGND VGND sky130_fd_pr__nfet_01v8 ad=0.0588 pd=0.7 as=0.0588 ps=0.7 w=0.42 l=0.15
X236 VPWR a_19430_11471# clknet_1_1__leaf_w_dly_sig1_n_ana_[14] VPWR sky130_fd_pr__pfet_01v8_hvt ad=0.265 pd=2.53 as=0.14 ps=1.28 w=1 l=0.15
X238 a_9849_7093# clknet_0_w_dly_sig1_n_ana_[4] VPWR VPWR sky130_fd_pr__pfet_01v8_hvt ad=0.14 pd=1.28 as=0.14 ps=1.28 w=1 l=0.15
X239 clknet_1_0__leaf_w_dly_sig1_n_ana_[4] a_9849_7093# VGND VGND sky130_fd_pr__nfet_01v8 ad=0.0588 pd=0.7 as=0.0588 ps=0.7 w=0.42 l=0.15
X240 a_15170_5055# a_15002_5309# VGND VGND sky130_fd_pr__nfet_01v8 ad=0.0989 pd=0.995 as=0.121 ps=1.09 w=0.64 l=0.15
X241 clknet_1_0__leaf_w_dly_sig1_n_ana_[7] a_17314_5487# VGND VGND sky130_fd_pr__nfet_01v8 ad=0.0588 pd=0.7 as=0.0588 ps=0.7 w=0.42 l=0.15
X244 clknet_1_0__leaf_w_dly_sig1_n_ana_[2] a_11689_8181# VPWR VPWR sky130_fd_pr__pfet_01v8_hvt ad=0.14 pd=1.28 as=0.14 ps=1.28 w=1 l=0.15
X245 net2 clknet_2_2__leaf_w_dly_stop VPWR VPWR sky130_fd_pr__pfet_01v8_hvt ad=0.135 pd=1.27 as=0.26 ps=2.52 w=1 l=0.15
X246 a_15002_10927# a_14563_10933# a_14917_10927# VGND sky130_fd_pr__nfet_01v8 ad=0.0621 pd=0.705 as=0.0813 ps=0.83 w=0.36 l=0.15
X247 VPWR net29 a_12969_10383# VPWR sky130_fd_pr__pfet_01v8_hvt ad=0.109 pd=1.36 as=0.0578 ps=0.695 w=0.42 l=0.15
X248 VGND a_14081_5461# clknet_1_0__leaf_w_dly_sig1_n_ana_[5] VGND sky130_fd_pr__nfet_01v8 ad=0.0578 pd=0.695 as=0.0588 ps=0.7 w=0.42 l=0.15
X250 a_21270_11471# clknet_0_w_dly_sig1_n_ana_[11] VGND VGND sky130_fd_pr__nfet_01v8 ad=0.0588 pd=0.7 as=0.111 ps=1.37 w=0.42 l=0.15
X251 clknet_1_1__leaf_w_dly_sig1_n_ana_[6] a_18878_8751# VPWR VPWR sky130_fd_pr__pfet_01v8_hvt ad=0.14 pd=1.28 as=0.14 ps=1.28 w=1 l=0.15
X252 VPWR a_18773_8181# clknet_1_0__leaf_w_dly_sig1_n_ana_[10] VPWR sky130_fd_pr__pfet_01v8_hvt ad=0.14 pd=1.28 as=0.14 ps=1.28 w=1 l=0.15
X253 clknet_1_0__leaf_w_dly_sig1_n_ana_[9] a_20626_4943# VGND VGND sky130_fd_pr__nfet_01v8 ad=0.0588 pd=0.7 as=0.0588 ps=0.7 w=0.42 l=0.15
X255 a_21362_9839# clknet_0_w_dly_sig1_n_ana_[9] VPWR VPWR sky130_fd_pr__pfet_01v8_hvt ad=0.14 pd=1.28 as=0.14 ps=1.28 w=1 l=0.15
X256 net53 clknet_1_0__leaf_w_dly_sig1_n_ana_[9] VGND VGND sky130_fd_pr__nfet_01v8 ad=0.0878 pd=0.92 as=0.169 ps=1.82 w=0.65 l=0.15
X258 VPWR a_21362_8751# clknet_1_1__leaf_i_stop VPWR sky130_fd_pr__pfet_01v8_hvt ad=0.14 pd=1.28 as=0.14 ps=1.28 w=1 l=0.15
X259 clknet_0_w_dly_sig1_n_ana_[10] a_21362_7663# VGND VGND sky130_fd_pr__nfet_01v8 ad=0.0588 pd=0.7 as=0.0588 ps=0.7 w=0.42 l=0.15
X260 VGND a_13643_7119# dbg_dly_sig[3] VGND sky130_fd_pr__nfet_01v8 ad=0.172 pd=1.83 as=0.0878 ps=0.92 w=0.65 l=0.15
X261 o_result_ctr[2] a_23119_10927# VPWR VPWR sky130_fd_pr__pfet_01v8_hvt ad=0.14 pd=1.28 as=0.165 ps=1.33 w=1 l=0.15
X263 VGND a_18003_8573# a_18171_8475# VGND sky130_fd_pr__nfet_01v8 ad=0.0878 pd=0.92 as=0.169 ps=1.82 w=0.65 l=0.15
X269 clknet_0_i_stop a_17025_8725# VPWR VPWR sky130_fd_pr__pfet_01v8_hvt ad=0.14 pd=1.28 as=0.14 ps=1.28 w=1 l=0.15
X270 VGND a_11689_8181# clknet_1_0__leaf_w_dly_sig1_n_ana_[2] VGND sky130_fd_pr__nfet_01v8 ad=0.0578 pd=0.695 as=0.0588 ps=0.7 w=0.42 l=0.15
X272 VGND a_23570_8751# clknet_1_1__leaf_w_dly_sig1_n_ana_[10] VGND sky130_fd_pr__nfet_01v8 ad=0.111 pd=1.37 as=0.0588 ps=0.7 w=0.42 l=0.15
X273 a_11045_10901# clknet_0_w_dly_stop VPWR VPWR sky130_fd_pr__pfet_01v8_hvt ad=0.14 pd=1.28 as=0.14 ps=1.28 w=1 l=0.15
X274 VPWR r_dly_store_ring[14] a_22383_9295# VPWR sky130_fd_pr__pfet_01v8_hvt ad=0.165 pd=1.33 as=0.265 ps=2.53 w=1 l=0.15
X275 VGND net59 a_25409_9071# VGND sky130_fd_pr__nfet_01v8 ad=0.169 pd=1.82 as=0.0878 ps=0.92 w=0.65 l=0.15
X276 VGND a_15382_8207# clknet_0_w_dly_sig1_n_ana_[1] VGND sky130_fd_pr__nfet_01v8 ad=0.0588 pd=0.7 as=0.0588 ps=0.7 w=0.42 l=0.15
X279 clknet_2_0__leaf_w_dly_stop a_11689_7093# VGND VGND sky130_fd_pr__nfet_01v8 ad=0.0588 pd=0.7 as=0.0588 ps=0.7 w=0.42 l=0.15
X280 a_12622_6005# a_12415_6005# a_12798_6397# VPWR sky130_fd_pr__pfet_01v8_hvt ad=0.0683 pd=0.745 as=0.0767 ps=0.785 w=0.42 l=0.15
X283 clknet_1_1__leaf_w_dly_sig1_n_ana_[14] a_19430_11471# VPWR VPWR sky130_fd_pr__pfet_01v8_hvt ad=0.14 pd=1.28 as=0.14 ps=1.28 w=1 l=0.15
X284 VPWR a_17314_5487# clknet_1_0__leaf_w_dly_sig1_n_ana_[7] VPWR sky130_fd_pr__pfet_01v8_hvt ad=0.14 pd=1.28 as=0.14 ps=1.28 w=1 l=0.15
X286 clknet_1_0__leaf_w_dly_sig1_n_ana_[5] a_14081_5461# VPWR VPWR sky130_fd_pr__pfet_01v8_hvt ad=0.14 pd=1.28 as=0.14 ps=1.28 w=1 l=0.15
X288 clknet_1_0__leaf_w_dly_sig1_n_ana_[15] a_14081_11445# VPWR VPWR sky130_fd_pr__pfet_01v8_hvt ad=0.14 pd=1.28 as=0.14 ps=1.28 w=1 l=0.15
X289 a_15851_11721# _06_ _01_ VPWR sky130_fd_pr__pfet_01v8_hvt ad=0.36 pd=2.72 as=0.135 ps=1.27 w=1 l=0.15
X291 clknet_1_1__leaf_w_dly_sig1_n_ana_[12] a_23202_9839# VPWR VPWR sky130_fd_pr__pfet_01v8_hvt ad=0.14 pd=1.28 as=0.14 ps=1.28 w=1 l=0.15
X292 a_13875_8359# a_13971_8181# VPWR VPWR sky130_fd_pr__pfet_01v8_hvt ad=0.27 pd=2.54 as=0.135 ps=1.27 w=1 l=0.15
X293 VPWR a_19982_6031# clknet_0_w_dly_sig1_n_ana_[9] VPWR sky130_fd_pr__pfet_01v8_hvt ad=0.14 pd=1.28 as=0.14 ps=1.28 w=1 l=0.15
X294 VGND a_14278_6575# clknet_0_w_dly_sig1_n_ana_[5] VGND sky130_fd_pr__nfet_01v8 ad=0.0588 pd=0.7 as=0.0588 ps=0.7 w=0.42 l=0.15
X295 clknet_1_0__leaf_w_dly_sig1_n_ana_[15] a_14081_11445# VPWR VPWR sky130_fd_pr__pfet_01v8_hvt ad=0.14 pd=1.28 as=0.14 ps=1.28 w=1 l=0.15
X296 VPWR a_14278_8751# clknet_0_w_dly_sig1_n_ana_[2] VPWR sky130_fd_pr__pfet_01v8_hvt ad=0.14 pd=1.28 as=0.14 ps=1.28 w=1 l=0.15
X297 clknet_1_1__leaf_w_dly_sig1_n_ana_[10] a_23570_8751# VPWR VPWR sky130_fd_pr__pfet_01v8_hvt ad=0.14 pd=1.28 as=0.14 ps=1.28 w=1 l=0.15
X298 net61 clknet_1_1__leaf_w_dly_sig1_n_ana_[11] VPWR VPWR sky130_fd_pr__pfet_01v8_hvt ad=0.135 pd=1.27 as=0.26 ps=2.52 w=1 l=0.15
X299 VPWR net58 a_9861_10927# VPWR sky130_fd_pr__pfet_01v8_hvt ad=0.26 pd=2.52 as=0.105 ps=1.21 w=1 l=0.15
X300 VGND a_23570_8751# clknet_1_1__leaf_w_dly_sig1_n_ana_[10] VGND sky130_fd_pr__nfet_01v8 ad=0.0588 pd=0.7 as=0.0588 ps=0.7 w=0.42 l=0.15
X301 a_12438_6575# w_dly_sig1_n_ana_[4] VPWR VPWR sky130_fd_pr__pfet_01v8_hvt ad=0.14 pd=1.28 as=0.14 ps=1.28 w=1 l=0.15
X303 clknet_1_1__leaf_w_dly_sig1_n_ana_[1] a_16854_10383# VPWR VPWR sky130_fd_pr__pfet_01v8_hvt ad=0.14 pd=1.28 as=0.14 ps=1.28 w=1 l=0.15
X304 a_24490_9269# a_24290_9569# a_24639_9295# VGND sky130_fd_pr__nfet_01v8 ad=0.0621 pd=0.705 as=0.0696 ps=0.765 w=0.36 l=0.15
X305 net49 clknet_1_0__leaf_w_dly_sig1_n_ana_[8] VGND VGND sky130_fd_pr__nfet_01v8 ad=0.0878 pd=0.92 as=0.169 ps=1.82 w=0.65 l=0.15
X306 VGND clknet_1_1__leaf_w_dly_sig1_n_ana_[9] net51 VGND sky130_fd_pr__nfet_01v8 ad=0.169 pd=1.82 as=0.0878 ps=0.92 w=0.65 l=0.15
X309 r_dly_store_ring[6] a_15135_4373# VGND VGND sky130_fd_pr__nfet_01v8 ad=0.169 pd=1.82 as=0.0878 ps=0.92 w=0.65 l=0.15
X310 VPWR a_18773_4917# clknet_1_0__leaf_w_dly_sig1_n_ana_[8] VPWR sky130_fd_pr__pfet_01v8_hvt ad=0.14 pd=1.28 as=0.14 ps=1.28 w=1 l=0.15
X311 clknet_1_0__leaf_w_dly_sig1_n_ana_[12] a_18589_9813# VPWR VPWR sky130_fd_pr__pfet_01v8_hvt ad=0.14 pd=1.28 as=0.14 ps=1.28 w=1 l=0.15
X313 VPWR a_18171_9563# a_18087_9661# VPWR sky130_fd_pr__pfet_01v8_hvt ad=0.111 pd=1.37 as=0.0882 ps=0.84 w=0.42 l=0.15
X314 VPWR a_9849_7093# clknet_1_0__leaf_w_dly_sig1_n_ana_[4] VPWR sky130_fd_pr__pfet_01v8_hvt ad=0.14 pd=1.28 as=0.14 ps=1.28 w=1 l=0.15
X316 VGND a_17038_10927# clknet_1_1__leaf_w_dly_sig1_n_ana_[7] VGND sky130_fd_pr__nfet_01v8 ad=0.0588 pd=0.7 as=0.0588 ps=0.7 w=0.42 l=0.15
X317 VPWR a_22443_8181# o_result_ring[12] VPWR sky130_fd_pr__pfet_01v8_hvt ad=0.14 pd=1.28 as=0.14 ps=1.28 w=1 l=0.15
X318 VGND a_17038_10927# clknet_1_1__leaf_w_dly_sig1_n_ana_[7] VGND sky130_fd_pr__nfet_01v8 ad=0.0588 pd=0.7 as=0.0588 ps=0.7 w=0.42 l=0.15
X319 VPWR a_12438_7663# clknet_0_w_dly_sig1_n_ana_[3] VPWR sky130_fd_pr__pfet_01v8_hvt ad=0.14 pd=1.28 as=0.14 ps=1.28 w=1 l=0.15
X320 VPWR a_14909_12533# clknet_1_0__leaf_w_ring_ctr_clk VPWR sky130_fd_pr__pfet_01v8_hvt ad=0.14 pd=1.28 as=0.14 ps=1.28 w=1 l=0.15
X322 a_19855_13469# a_19635_13481# VGND VGND sky130_fd_pr__nfet_01v8 ad=0.0696 pd=0.765 as=0.121 ps=1.09 w=0.42 l=0.15
X323 clknet_1_1__leaf_w_ring_ctr_clk a_20626_12559# VGND VGND sky130_fd_pr__nfet_01v8 ad=0.0588 pd=0.7 as=0.0578 ps=0.695 w=0.42 l=0.15
X324 VPWR w_ring_ctr_clk a_17682_12015# VPWR sky130_fd_pr__pfet_01v8_hvt ad=0.14 pd=1.28 as=0.14 ps=1.28 w=1 l=0.15
X325 VGND a_16210_6575# clknet_1_1__leaf_w_dly_sig1_n_ana_[2] VGND sky130_fd_pr__nfet_01v8 ad=0.0588 pd=0.7 as=0.0588 ps=0.7 w=0.42 l=0.15
X326 _08_ r_ring_ctr[1] VPWR VPWR sky130_fd_pr__pfet_01v8_hvt ad=0.135 pd=1.27 as=0.165 ps=1.33 w=1 l=0.15
X327 VGND a_12622_10357# a_12551_10383# VGND sky130_fd_pr__nfet_01v8 ad=0.121 pd=1.09 as=0.0989 ps=0.995 w=0.64 l=0.15
X328 VGND a_21362_9839# clknet_1_1__leaf_w_dly_sig1_n_ana_[9] VGND sky130_fd_pr__nfet_01v8 ad=0.0578 pd=0.695 as=0.0588 ps=0.7 w=0.42 l=0.15
X329 clknet_1_0__leaf_w_dly_sig1_n_ana_[6] a_13713_6005# VGND VGND sky130_fd_pr__nfet_01v8 ad=0.0588 pd=0.7 as=0.0578 ps=0.695 w=0.42 l=0.15
X330 a_12771_6031# a_12551_6031# VGND VGND sky130_fd_pr__nfet_01v8 ad=0.0696 pd=0.765 as=0.121 ps=1.09 w=0.42 l=0.15
X331 VGND r_dly_store_ring[10] a_21279_6575# VGND sky130_fd_pr__nfet_01v8 ad=0.0703 pd=0.755 as=0.111 ps=1.37 w=0.42 l=0.15
X332 clknet_0_w_dly_stop a_14278_9839# VPWR VPWR sky130_fd_pr__pfet_01v8_hvt ad=0.14 pd=1.28 as=0.138 ps=1.27 w=1 l=0.15
X333 VPWR a_22383_9295# o_result_ring[14] VPWR sky130_fd_pr__pfet_01v8_hvt ad=0.3 pd=2.6 as=0.14 ps=1.28 w=1 l=0.15