* PEX produced on Sun Mar 17 05:12:52 PM CET 2024 using /foss/tools/osic-multitool/iic-pex.sh with m=1 and s=1
* NGSPICE file created from tdc_ring.ext - technology: sky130A

.subckt tdc_ring i_start i_stop o_result_ctr[2] o_result_ring[10] o_result_ring[12]
+ o_result_ring[14] o_result_ring[15] o_result_ring[4] o_result_ring[7] o_result_ring[9]
+ o_result_ring[1] o_result_ring[6] o_result_ctr[1] o_result_ring[3] o_result_ring[11]
+ o_result_ring[8] o_result_ring[13] o_result_ring[0] o_result_ring[5] o_result_ctr[0]
+ o_result_ring[2] VPWR VGND
X0 VPWR net109 net122 VPWR sky130_fd_pr__pfet_01v8_hvt ad=0.26 pd=2.52 as=0.135 ps=1.27 w=1 l=0.15
X1 VPWR net52 net104 VPWR sky130_fd_pr__pfet_01v8_hvt ad=0.26 pd=2.52 as=0.135 ps=1.27 w=1 l=0.15
X2 VGND net19 net164 VGND sky130_fd_pr__nfet_01v8 ad=0.169 pd=1.82 as=0.0878 ps=0.92 w=0.65 l=0.15
X3 o_result_ring[13] a_15023_8207# VGND VGND sky130_fd_pr__nfet_01v8 ad=0.0588 pd=0.7 as=0.0588 ps=0.7 w=0.42 l=0.15
X6 a_11103_10749# a_10239_10383# a_10846_10495# VPWR sky130_fd_pr__pfet_01v8_hvt ad=0.0567 pd=0.69 as=0.109 ps=1.08 w=0.42 l=0.15
X7 VPWR a_10607_9295# o_result_ring[14] VPWR sky130_fd_pr__pfet_01v8_hvt ad=0.14 pd=1.28 as=0.14 ps=1.28 w=1 l=0.15
X10 net89 net27 VGND VGND sky130_fd_pr__nfet_01v8 ad=0.0878 pd=0.92 as=0.169 ps=1.82 w=0.65 l=0.15
X11 VGND a_14439_6835# o_result_ring[9] VGND sky130_fd_pr__nfet_01v8 ad=0.0703 pd=0.755 as=0.0588 ps=0.7 w=0.42 l=0.15
X13 VGND net27 net85 VGND sky130_fd_pr__nfet_01v8 ad=0.169 pd=1.82 as=0.0878 ps=0.92 w=0.65 l=0.15
X14 net127 net23 VPWR VPWR sky130_fd_pr__pfet_01v8_hvt ad=0.135 pd=1.27 as=0.26 ps=2.52 w=1 l=0.15
X16 VPWR net120 net19 VPWR sky130_fd_pr__pfet_01v8_hvt ad=0.26 pd=2.52 as=0.135 ps=1.27 w=1 l=0.15
X20 VGND clknet_1_1__leaf_i_stop a_16863_10933# VGND sky130_fd_pr__nfet_01v8 ad=0.0567 pd=0.69 as=0.109 ps=1.36 w=0.42 l=0.15
X21 a_17026_9839# a_16587_9845# a_16941_9839# VGND sky130_fd_pr__nfet_01v8 ad=0.0621 pd=0.705 as=0.0813 ps=0.83 w=0.36 l=0.15
X22 net30 net159 VGND VGND sky130_fd_pr__nfet_01v8 ad=0.0878 pd=0.92 as=0.169 ps=1.82 w=0.65 l=0.15
X26 net165 net126 VGND VGND sky130_fd_pr__nfet_01v8 ad=0.0878 pd=0.92 as=0.169 ps=1.82 w=0.65 l=0.15
X31 clknet_0_i_stop a_14002_8751# VGND VGND sky130_fd_pr__nfet_01v8 ad=0.0588 pd=0.7 as=0.0588 ps=0.7 w=0.42 l=0.15
X35 net122 net12 a_15845_10383# VGND sky130_fd_pr__nfet_01v8 ad=0.169 pd=1.82 as=0.0878 ps=0.92 w=0.65 l=0.15
X38 net17 clknet_1_0__leaf_net3 VPWR VPWR sky130_fd_pr__pfet_01v8_hvt ad=0.135 pd=1.27 as=0.26 ps=2.52 w=1 l=0.15
X40 VGND net169 net39 VGND sky130_fd_pr__nfet_01v8 ad=0.169 pd=1.82 as=0.0878 ps=0.92 w=0.65 l=0.15
X41 net25 net79 VPWR VPWR sky130_fd_pr__pfet_01v8_hvt ad=0.135 pd=1.27 as=0.26 ps=2.52 w=1 l=0.15
X44 VPWR clknet_1_0__leaf_i_stop a_9135_7669# VPWR sky130_fd_pr__pfet_01v8_hvt ad=0.0864 pd=0.91 as=0.166 ps=1.8 w=0.64 l=0.15
X50 a_15427_10927# a_14729_10933# a_15170_10901# VGND sky130_fd_pr__nfet_01v8 ad=0.0684 pd=0.74 as=0.0989 ps=0.995 w=0.36 l=0.15
X52 a_14186_9295# net3 VPWR VPWR sky130_fd_pr__pfet_01v8_hvt ad=0.14 pd=1.28 as=0.265 ps=2.53 w=1 l=0.15
X53 a_13990_8573# a_13551_8207# a_13905_8207# VGND sky130_fd_pr__nfet_01v8 ad=0.0621 pd=0.705 as=0.0813 ps=0.83 w=0.36 l=0.15
X58 VPWR net89 net91 VPWR sky130_fd_pr__pfet_01v8_hvt ad=0.26 pd=2.52 as=0.135 ps=1.27 w=1 l=0.15
X59 VPWR net31 net171 VPWR sky130_fd_pr__pfet_01v8_hvt ad=0.26 pd=2.52 as=0.135 ps=1.27 w=1 l=0.15
X60 a_12473_11265# w_dly_strt[3] a_12387_11265# VGND sky130_fd_pr__nfet_01v8 ad=0.0567 pd=0.69 as=0.118 ps=1.4 w=0.42 l=0.15
X61 a_16753_9845# a_16587_9845# VGND VGND sky130_fd_pr__nfet_01v8 ad=0.109 pd=1.36 as=0.0567 ps=0.69 w=0.42 l=0.15
X66 a_17152_12393# a_16753_12021# a_17026_12015# VGND sky130_fd_pr__nfet_01v8 ad=0.0696 pd=0.765 as=0.0621 ps=0.705 w=0.36 l=0.15
X67 VGND a_14583_7387# a_14541_7119# VGND sky130_fd_pr__nfet_01v8 ad=0.109 pd=1.36 as=0.066 ps=0.745 w=0.42 l=0.15
X74 VPWR net45 net97 VPWR sky130_fd_pr__pfet_01v8_hvt ad=0.26 pd=2.52 as=0.135 ps=1.27 w=1 l=0.15
X76 w_ring_ctr_clk a_13735_11471# VGND VGND sky130_fd_pr__nfet_01v8 ad=0.135 pd=1.56 as=0.0754 ps=0.81 w=0.52 l=0.15
X78 net161 net19 VGND VGND sky130_fd_pr__nfet_01v8 ad=0.0878 pd=0.92 as=0.169 ps=1.82 w=0.65 l=0.15
X80 VPWR net92 net50 VPWR sky130_fd_pr__pfet_01v8_hvt ad=0.26 pd=2.52 as=0.135 ps=1.27 w=1 l=0.15
X83 VGND a_18942_9813# a_18900_10217# VGND sky130_fd_pr__nfet_01v8 ad=0.121 pd=1.09 as=0.0696 ps=0.765 w=0.42 l=0.15
X87 VGND net69 net71 VGND sky130_fd_pr__nfet_01v8 ad=0.169 pd=1.82 as=0.0878 ps=0.92 w=0.65 l=0.15
X88 VGND net128 net130 VGND sky130_fd_pr__nfet_01v8 ad=0.169 pd=1.82 as=0.0878 ps=0.92 w=0.65 l=0.15
X90 a_13231_10058# _03_ VPWR VPWR sky130_fd_pr__pfet_01v8_hvt ad=0.205 pd=2.1 as=0.115 ps=1.08 w=0.79 l=0.15
X91 net107 net68 VPWR VPWR sky130_fd_pr__pfet_01v8_hvt ad=0.135 pd=1.27 as=0.26 ps=2.52 w=1 l=0.15
X93 a_10965_6031# net16 net104 VGND sky130_fd_pr__nfet_01v8 ad=0.0878 pd=0.92 as=0.169 ps=1.82 w=0.65 l=0.15
X96 VGND net147 net68 VGND sky130_fd_pr__nfet_01v8 ad=0.169 pd=1.82 as=0.0878 ps=0.92 w=0.65 l=0.15
X99 a_14526_9813# a_14358_9839# VPWR VPWR sky130_fd_pr__pfet_01v8_hvt ad=0.109 pd=1.08 as=0.179 ps=1.26 w=0.75 l=0.15
X100 clknet_1_1__leaf_i_stop a_16670_9295# VGND VGND sky130_fd_pr__nfet_01v8 ad=0.0588 pd=0.7 as=0.0588 ps=0.7 w=0.42 l=0.15
X104 a_12475_11837# a_11693_11471# a_12391_11837# VPWR sky130_fd_pr__pfet_01v8_hvt ad=0.0882 pd=0.84 as=0.0567 ps=0.69 w=0.42 l=0.15
X105 VGND r_ring_ctr[1] a_15381_10383# VGND sky130_fd_pr__nfet_01v8 ad=0.107 pd=0.98 as=0.0878 ps=0.92 w=0.65 l=0.15
X106 VPWR a_16670_9295# clknet_1_1__leaf_i_stop VPWR sky130_fd_pr__pfet_01v8_hvt ad=0.14 pd=1.28 as=0.14 ps=1.28 w=1 l=0.15
X107 VPWR clknet_0_net3 a_11965_8725# VPWR sky130_fd_pr__pfet_01v8_hvt ad=0.14 pd=1.28 as=0.14 ps=1.28 w=1 l=0.15
X109 VPWR net109 net120 VPWR sky130_fd_pr__pfet_01v8_hvt ad=0.26 pd=2.52 as=0.135 ps=1.27 w=1 l=0.15
X110 clknet_1_0__leaf_net3 a_11965_8725# VGND VGND sky130_fd_pr__nfet_01v8 ad=0.0588 pd=0.7 as=0.0588 ps=0.7 w=0.42 l=0.15
X117 a_19034_10901# a_18866_10927# VGND VGND sky130_fd_pr__nfet_01v8 ad=0.0989 pd=0.995 as=0.121 ps=1.09 w=0.64 l=0.15
X119 a_14273_9839# net77 VGND VGND sky130_fd_pr__nfet_01v8 ad=0.0813 pd=0.83 as=0.109 ps=1.36 w=0.42 l=0.15
X120 VPWR a_19715_8751# o_result_ring[4] VPWR sky130_fd_pr__pfet_01v8_hvt ad=0.3 pd=2.6 as=0.14 ps=1.28 w=1 l=0.15
X122 VGND clknet_1_1__leaf_i_stop a_16863_7669# VGND sky130_fd_pr__nfet_01v8 ad=0.0567 pd=0.69 as=0.109 ps=1.36 w=0.42 l=0.15
X124 VGND net71 net188 VGND sky130_fd_pr__nfet_01v8 ad=0.169 pd=1.82 as=0.0878 ps=0.92 w=0.65 l=0.15
X125 VGND net108 net115 VGND sky130_fd_pr__nfet_01v8 ad=0.169 pd=1.82 as=0.0878 ps=0.92 w=0.65 l=0.15
X126 r_dly_store_ctr[0] a_17895_10901# VPWR VPWR sky130_fd_pr__pfet_01v8_hvt ad=0.26 pd=2.52 as=0.135 ps=1.27 w=1 l=0.15
X127 net78 net74 VPWR VPWR sky130_fd_pr__pfet_01v8_hvt ad=0.135 pd=1.27 as=0.26 ps=2.52 w=1 l=0.15
X129 VPWR a_10075_8725# a_9991_8751# VPWR sky130_fd_pr__pfet_01v8_hvt ad=0.111 pd=1.37 as=0.0882 ps=0.84 w=0.42 l=0.15
X130 net98 net96 VPWR VPWR sky130_fd_pr__pfet_01v8_hvt ad=0.135 pd=1.27 as=0.26 ps=2.52 w=1 l=0.15
X131 clknet_1_1__leaf_i_stop a_16670_9295# VGND VGND sky130_fd_pr__nfet_01v8 ad=0.0588 pd=0.7 as=0.0588 ps=0.7 w=0.42 l=0.15
X135 VPWR a_15170_10901# a_15097_10927# VPWR sky130_fd_pr__pfet_01v8_hvt ad=0.179 pd=1.26 as=0.0767 ps=0.785 w=0.42 l=0.15
X137 net170 net31 VPWR VPWR sky130_fd_pr__pfet_01v8_hvt ad=0.135 pd=1.27 as=0.26 ps=2.52 w=1 l=0.15
X139 VGND clknet_1_0__leaf_i_stop a_9135_9295# VGND sky130_fd_pr__nfet_01v8 ad=0.0567 pd=0.69 as=0.109 ps=1.36 w=0.42 l=0.15
X144 VGND net180 net66 VGND sky130_fd_pr__nfet_01v8 ad=0.169 pd=1.82 as=0.0878 ps=0.92 w=0.65 l=0.15
X147 net16 clknet_1_0__leaf_net3 VGND VGND sky130_fd_pr__nfet_01v8 ad=0.0878 pd=0.92 as=0.169 ps=1.82 w=0.65 l=0.15
X149 VPWR a_14063_11445# _05_ VPWR sky130_fd_pr__pfet_01v8_hvt ad=0.228 pd=1.74 as=0.26 ps=2.52 w=1 l=0.15
X151 VGND net182 net105 VGND sky130_fd_pr__nfet_01v8 ad=0.169 pd=1.82 as=0.0878 ps=0.92 w=0.65 l=0.15
X152 r_dly_store_ctr[1] a_19459_10901# VGND VGND sky130_fd_pr__nfet_01v8 ad=0.169 pd=1.82 as=0.0878 ps=0.92 w=0.65 l=0.15
X153 VPWR a_9999_9661# a_10167_9563# VPWR sky130_fd_pr__pfet_01v8_hvt ad=0.135 pd=1.27 as=0.27 ps=2.54 w=1 l=0.15
X157 VPWR net174 net53 VPWR sky130_fd_pr__pfet_01v8_hvt ad=0.26 pd=2.52 as=0.135 ps=1.27 w=1 l=0.15
X158 a_15002_10927# a_14563_10933# a_14917_10927# VGND sky130_fd_pr__nfet_01v8 ad=0.0621 pd=0.705 as=0.0813 ps=0.83 w=0.36 l=0.15
X159 VPWR net173 net54 VPWR sky130_fd_pr__pfet_01v8_hvt ad=0.26 pd=2.52 as=0.135 ps=1.27 w=1 l=0.15
X160 a_14415_7485# a_13551_7119# a_14158_7231# VPWR sky130_fd_pr__pfet_01v8_hvt ad=0.0567 pd=0.69 as=0.109 ps=1.08 w=0.42 l=0.15
X161 a_10125_8041# a_9135_7669# a_9999_7663# VGND sky130_fd_pr__nfet_01v8 ad=0.066 pd=0.745 as=0.0684 ps=0.74 w=0.36 l=0.15
X163 VPWR a_19291_10927# a_19459_10901# VPWR sky130_fd_pr__pfet_01v8_hvt ad=0.135 pd=1.27 as=0.27 ps=2.54 w=1 l=0.15
X170 net159 net19 VGND VGND sky130_fd_pr__nfet_01v8 ad=0.0878 pd=0.92 as=0.169 ps=1.82 w=0.65 l=0.15
X171 net123 net121 VPWR VPWR sky130_fd_pr__pfet_01v8_hvt ad=0.135 pd=1.27 as=0.26 ps=2.52 w=1 l=0.15
X175 VPWR net27 net88 VPWR sky130_fd_pr__pfet_01v8_hvt ad=0.26 pd=2.52 as=0.135 ps=1.27 w=1 l=0.15
X176 a_14415_8573# a_13717_8207# a_14158_8319# VGND sky130_fd_pr__nfet_01v8 ad=0.0684 pd=0.74 as=0.0989 ps=0.995 w=0.36 l=0.15
X177 VGND net119 net158 VGND sky130_fd_pr__nfet_01v8 ad=0.169 pd=1.82 as=0.0878 ps=0.92 w=0.65 l=0.15
X178 VPWR r_dly_store_ring[4] a_19715_8751# VPWR sky130_fd_pr__pfet_01v8_hvt ad=0.165 pd=1.33 as=0.265 ps=2.53 w=1 l=0.15
X179 VPWR net162 net27 VPWR sky130_fd_pr__pfet_01v8_hvt ad=0.26 pd=2.52 as=0.135 ps=1.27 w=1 l=0.15
X180 VPWR a_15023_8207# o_result_ring[13] VPWR sky130_fd_pr__pfet_01v8_hvt ad=0.3 pd=2.6 as=0.14 ps=1.28 w=1 l=0.15
X181 VGND net167 net41 VGND sky130_fd_pr__nfet_01v8 ad=0.169 pd=1.82 as=0.0878 ps=0.92 w=0.65 l=0.15
X182 VPWR a_14186_9295# clknet_0_net3 VPWR sky130_fd_pr__pfet_01v8_hvt ad=0.14 pd=1.28 as=0.14 ps=1.28 w=1 l=0.15
X186 a_19567_11837# a_18869_11471# a_19310_11583# VGND sky130_fd_pr__nfet_01v8 ad=0.0684 pd=0.74 as=0.0989 ps=0.995 w=0.36 l=0.15
X187 VGND net43 net177 VGND sky130_fd_pr__nfet_01v8 ad=0.169 pd=1.82 as=0.0878 ps=0.92 w=0.65 l=0.15
X190 net5 clknet_1_1__leaf_net3 VPWR VPWR sky130_fd_pr__pfet_01v8_hvt ad=0.135 pd=1.27 as=0.26 ps=2.52 w=1 l=0.15
X192 VGND a_17194_9813# a_17152_10217# VGND sky130_fd_pr__nfet_01v8 ad=0.121 pd=1.09 as=0.0696 ps=0.765 w=0.42 l=0.15
X193 net50 net92 VGND VGND sky130_fd_pr__nfet_01v8 ad=0.0878 pd=0.92 as=0.169 ps=1.82 w=0.65 l=0.15
X194 clknet_1_0__leaf_net3 a_11965_8725# VPWR VPWR sky130_fd_pr__pfet_01v8_hvt ad=0.14 pd=1.28 as=0.14 ps=1.28 w=1 l=0.15
X196 o_result_ring[6] a_19807_7663# VGND VGND sky130_fd_pr__nfet_01v8 ad=0.0588 pd=0.7 as=0.0703 ps=0.755 w=0.42 l=0.15
X197 VGND net59 net146 VGND sky130_fd_pr__nfet_01v8 ad=0.169 pd=1.82 as=0.0878 ps=0.92 w=0.65 l=0.15
X203 net88 net27 VGND VGND sky130_fd_pr__nfet_01v8 ad=0.0878 pd=0.92 as=0.169 ps=1.82 w=0.65 l=0.15
X204 a_14158_8319# a_13990_8573# VPWR VPWR sky130_fd_pr__pfet_01v8_hvt ad=0.109 pd=1.08 as=0.179 ps=1.26 w=0.75 l=0.15
X206 clknet_1_0__leaf_net3 a_11965_8725# VPWR VPWR sky130_fd_pr__pfet_01v8_hvt ad=0.14 pd=1.28 as=0.265 ps=2.53 w=1 l=0.15
X209 VGND clknet_0_net3 a_16486_8751# VGND sky130_fd_pr__nfet_01v8 ad=0.0588 pd=0.7 as=0.0588 ps=0.7 w=0.42 l=0.15
X210 VPWR r_dly_store_ring[5] a_20267_8751# VPWR sky130_fd_pr__pfet_01v8_hvt ad=0.165 pd=1.33 as=0.265 ps=2.53 w=1 l=0.15
X211 net132 net35 VPWR VPWR sky130_fd_pr__pfet_01v8_hvt ad=0.135 pd=1.27 as=0.26 ps=2.52 w=1 l=0.15
X212 net171 net37 VPWR VPWR sky130_fd_pr__pfet_01v8_hvt ad=0.135 pd=1.27 as=0.26 ps=2.52 w=1 l=0.15
X214 VGND a_9999_9661# a_10167_9563# VGND sky130_fd_pr__nfet_01v8 ad=0.0878 pd=0.92 as=0.169 ps=1.82 w=0.65 l=0.15
X215 clknet_1_0__leaf_i_stop a_11597_9269# VGND VGND sky130_fd_pr__nfet_01v8 ad=0.0588 pd=0.7 as=0.0588 ps=0.7 w=0.42 l=0.15
X218 VPWR net23 net126 VPWR sky130_fd_pr__pfet_01v8_hvt ad=0.26 pd=2.52 as=0.135 ps=1.27 w=1 l=0.15
X219 o_result_ring[15] a_11711_10383# VGND VGND sky130_fd_pr__nfet_01v8 ad=0.0588 pd=0.7 as=0.0588 ps=0.7 w=0.42 l=0.15
X220 a_14439_6835# r_dly_store_ring[9] VPWR VPWR sky130_fd_pr__pfet_01v8_hvt ad=0.265 pd=2.53 as=0.165 ps=1.33 w=1 l=0.15
X221 net178 net43 VPWR VPWR sky130_fd_pr__pfet_01v8_hvt ad=0.135 pd=1.27 as=0.26 ps=2.52 w=1 l=0.15
X223 a_17217_7663# net42 VPWR VPWR sky130_fd_pr__pfet_01v8_hvt ad=0.0578 pd=0.695 as=0.109 ps=1.36 w=0.42 l=0.15
X230 VGND clknet_1_0__leaf_i_stop a_10239_10383# VGND sky130_fd_pr__nfet_01v8 ad=0.0567 pd=0.69 as=0.109 ps=1.36 w=0.42 l=0.15
X231 net38 net85 VPWR VPWR sky130_fd_pr__pfet_01v8_hvt ad=0.135 pd=1.27 as=0.26 ps=2.52 w=1 l=0.15
X238 VPWR net63 net108 VPWR sky130_fd_pr__pfet_01v8_hvt ad=0.14 pd=1.28 as=0.14 ps=1.28 w=1 l=0.15
X239 VGND a_12815_10927# o_result_ring[0] VGND sky130_fd_pr__nfet_01v8 ad=0.122 pd=1.42 as=0.0588 ps=0.7 w=0.42 l=0.15
X240 net186 net184 VPWR VPWR sky130_fd_pr__pfet_01v8_hvt ad=0.135 pd=1.27 as=0.26 ps=2.52 w=1 l=0.15
X241 VPWR net33 net90 VPWR sky130_fd_pr__pfet_01v8_hvt ad=0.26 pd=2.52 as=0.135 ps=1.27 w=1 l=0.15
X242 a_14783_9839# a_13919_9845# a_14526_9813# VPWR sky130_fd_pr__pfet_01v8_hvt ad=0.0567 pd=0.69 as=0.109 ps=1.08 w=0.42 l=0.15
X247 r_dly_store_ring[3] a_19367_9813# VPWR VPWR sky130_fd_pr__pfet_01v8_hvt ad=0.26 pd=2.52 as=0.135 ps=1.27 w=1 l=0.15
X248 a_17853_8041# a_16863_7669# a_17727_7663# VGND sky130_fd_pr__nfet_01v8 ad=0.066 pd=0.745 as=0.0684 ps=0.74 w=0.36 l=0.15
X250 VPWR a_14583_7387# a_14499_7485# VPWR sky130_fd_pr__pfet_01v8_hvt ad=0.111 pd=1.37 as=0.0882 ps=0.84 w=0.42 l=0.15
X251 o_result_ring[13] a_15023_8207# VPWR VPWR sky130_fd_pr__pfet_01v8_hvt ad=0.14 pd=1.28 as=0.165 ps=1.33 w=1 l=0.15
X252 VPWR net59 net149 VPWR sky130_fd_pr__pfet_01v8_hvt ad=0.26 pd=2.52 as=0.135 ps=1.27 w=1 l=0.15
X255 net58 net138 VPWR VPWR sky130_fd_pr__pfet_01v8_hvt ad=0.135 pd=1.27 as=0.26 ps=2.52 w=1 l=0.15
X257 VPWR net126 net165 VPWR sky130_fd_pr__pfet_01v8_hvt ad=0.26 pd=2.52 as=0.135 ps=1.27 w=1 l=0.15
X258 VGND net56 net182 VGND sky130_fd_pr__nfet_01v8 ad=0.169 pd=1.82 as=0.0878 ps=0.92 w=0.65 l=0.15
X259 clknet_1_1__leaf_net3 a_16486_8751# VPWR VPWR sky130_fd_pr__pfet_01v8_hvt ad=0.14 pd=1.28 as=0.14 ps=1.28 w=1 l=0.15
X260 VGND net108 net116 VGND sky130_fd_pr__nfet_01v8 ad=0.169 pd=1.82 as=0.0878 ps=0.92 w=0.65 l=0.15
X261 VGND a_18703_9295# o_result_ring[2] VGND sky130_fd_pr__nfet_01v8 ad=0.0588 pd=0.7 as=0.0588 ps=0.7 w=0.42 l=0.15
X262 VGND a_18850_8725# a_18808_9129# VGND sky130_fd_pr__nfet_01v8 ad=0.121 pd=1.09 as=0.0696 ps=0.765 w=0.42 l=0.15
X263 a_13905_8207# net66 VGND VGND sky130_fd_pr__nfet_01v8 ad=0.0813 pd=0.83 as=0.109 ps=1.36 w=0.42 l=0.15
X265 VGND clknet_1_1__leaf_i_stop a_16587_9845# VGND sky130_fd_pr__nfet_01v8 ad=0.0567 pd=0.69 as=0.109 ps=1.36 w=0.42 l=0.15
X266 net188 net108 VPWR VPWR sky130_fd_pr__pfet_01v8_hvt ad=0.135 pd=1.27 as=0.26 ps=2.52 w=1 l=0.15
X270 net144 net101 VPWR VPWR sky130_fd_pr__pfet_01v8_hvt ad=0.135 pd=1.27 as=0.26 ps=2.52 w=1 l=0.15
X273 VGND r_dly_store_ring[0] a_12815_10927# VGND sky130_fd_pr__nfet_01v8 ad=0.0703 pd=0.755 as=0.111 ps=1.37 w=0.42 l=0.15
X275 net129 net23 VGND VGND sky130_fd_pr__nfet_01v8 ad=0.0878 pd=0.92 as=0.169 ps=1.82 w=0.65 l=0.15
X276 a_15745_7119# net46 VPWR VPWR sky130_fd_pr__pfet_01v8_hvt ad=0.0578 pd=0.695 as=0.109 ps=1.36 w=0.42 l=0.15
X282 VPWR net86 net37 VPWR sky130_fd_pr__pfet_01v8_hvt ad=0.26 pd=2.52 as=0.135 ps=1.27 w=1 l=0.15
X285 VGND net59 net150 VGND sky130_fd_pr__nfet_01v8 ad=0.169 pd=1.82 as=0.0878 ps=0.92 w=0.65 l=0.15
X290 VPWR a_19899_10927# o_result_ctr[1] VPWR sky130_fd_pr__pfet_01v8_hvt ad=0.3 pd=2.6 as=0.14 ps=1.28 w=1 l=0.15
X291 clknet_0_net3 a_14186_9295# VPWR VPWR sky130_fd_pr__pfet_01v8_hvt ad=0.14 pd=1.28 as=0.14 ps=1.28 w=1 l=0.15
X295 a_14191_11471# net115 VGND VGND sky130_fd_pr__nfet_01v8 ad=0.0504 pd=0.66 as=0.101 ps=0.99 w=0.42 l=0.15
X297 a_16486_8751# clknet_0_net3 VGND VGND sky130_fd_pr__nfet_01v8 ad=0.0588 pd=0.7 as=0.111 ps=1.37 w=0.42 l=0.15
X298 net139 net47 VPWR VPWR sky130_fd_pr__pfet_01v8_hvt ad=0.135 pd=1.27 as=0.26 ps=2.52 w=1 l=0.15
X299 VGND a_11597_9269# clknet_1_0__leaf_i_stop VGND sky130_fd_pr__nfet_01v8 ad=0.0588 pd=0.7 as=0.0588 ps=0.7 w=0.42 l=0.15
X300 VPWR net23 net124 VPWR sky130_fd_pr__pfet_01v8_hvt ad=0.26 pd=2.52 as=0.135 ps=1.27 w=1 l=0.15
X301 VPWR net109 net118 VPWR sky130_fd_pr__pfet_01v8_hvt ad=0.26 pd=2.52 as=0.135 ps=1.27 w=1 l=0.15
X304 VPWR a_18703_10383# o_result_ctr[0] VPWR sky130_fd_pr__pfet_01v8_hvt ad=0.14 pd=1.28 as=0.14 ps=1.28 w=1 l=0.15
X305 a_9742_9407# a_9574_9661# VGND VGND sky130_fd_pr__nfet_01v8 ad=0.0989 pd=0.995 as=0.121 ps=1.09 w=0.64 l=0.15
X308 VGND a_15023_8207# o_result_ring[13] VGND sky130_fd_pr__nfet_01v8 ad=0.122 pd=1.42 as=0.0588 ps=0.7 w=0.42 l=0.15
X309 net76 net156 VPWR VPWR sky130_fd_pr__pfet_01v8_hvt ad=0.135 pd=1.27 as=0.26 ps=2.52 w=1 l=0.15
X311 a_9957_7119# net53 VGND VGND sky130_fd_pr__nfet_01v8 ad=0.0878 pd=0.92 as=0.169 ps=1.82 w=0.65 l=0.15
X313 a_9650_8725# a_9482_8751# VPWR VPWR sky130_fd_pr__pfet_01v8_hvt ad=0.109 pd=1.08 as=0.179 ps=1.26 w=0.75 l=0.15
X314 net90 net27 VGND VGND sky130_fd_pr__nfet_01v8 ad=0.0878 pd=0.92 as=0.169 ps=1.82 w=0.65 l=0.15
X315 net37 net86 VGND VGND sky130_fd_pr__nfet_01v8 ad=0.0878 pd=0.92 as=0.169 ps=1.82 w=0.65 l=0.15
X316 VGND a_19107_8751# a_19275_8725# VGND sky130_fd_pr__nfet_01v8 ad=0.0878 pd=0.92 as=0.169 ps=1.82 w=0.65 l=0.15
X317 VGND net181 net65 VGND sky130_fd_pr__nfet_01v8 ad=0.169 pd=1.82 as=0.0878 ps=0.92 w=0.65 l=0.15
X318 VPWR net148 net186 VPWR sky130_fd_pr__pfet_01v8_hvt ad=0.26 pd=2.52 as=0.135 ps=1.27 w=1 l=0.15
X320 VPWR a_11597_9269# clknet_1_0__leaf_i_stop VPWR sky130_fd_pr__pfet_01v8_hvt ad=0.14 pd=1.28 as=0.14 ps=1.28 w=1 l=0.15
X323 a_14917_10927# _01_ VPWR VPWR sky130_fd_pr__pfet_01v8_hvt ad=0.0578 pd=0.695 as=0.109 ps=1.36 w=0.42 l=0.15
X324 net114 net108 VPWR VPWR sky130_fd_pr__pfet_01v8_hvt ad=0.135 pd=1.27 as=0.26 ps=2.52 w=1 l=0.15
X325 a_14116_7119# a_13717_7119# a_13990_7485# VGND sky130_fd_pr__nfet_01v8 ad=0.0696 pd=0.765 as=0.0621 ps=0.705 w=0.36 l=0.15
X326 VGND a_17895_10901# a_17853_11305# VGND sky130_fd_pr__nfet_01v8 ad=0.109 pd=1.36 as=0.066 ps=0.745 w=0.42 l=0.15
X327 a_9209_8757# a_9043_8757# VPWR VPWR sky130_fd_pr__pfet_01v8_hvt ad=0.166 pd=1.8 as=0.0864 ps=0.91 w=0.64 l=0.15
X328 net63 net183 VGND VGND sky130_fd_pr__nfet_01v8 ad=0.0878 pd=0.92 as=0.169 ps=1.82 w=0.65 l=0.15
X333 VPWR clknet_1_1__leaf_i_stop a_18335_9845# VPWR sky130_fd_pr__pfet_01v8_hvt ad=0.0864 pd=0.91 as=0.166 ps=1.8 w=0.64 l=0.15
X334 a_9650_8725# a_9482_8751# VGND VGND sky130_fd_pr__nfet_01v8 ad=0.0989 pd=0.995 as=0.121 ps=1.09 w=0.64 l=0.15
X336 o_result_ring[6] a_19807_7663# VPWR VPWR sky130_fd_pr__pfet_01v8_hvt ad=0.14 pd=1.28 as=0.165 ps=1.33 w=1 l=0.15
X338 net182 net56 VPWR VPWR sky130_fd_pr__pfet_01v8_hvt ad=0.135 pd=1.27 as=0.26 ps=2.52 w=1 l=0.15
X343 VGND w_ring_ctr_clk a_14103_12021# VGND sky130_fd_pr__nfet_01v8 ad=0.0567 pd=0.69 as=0.109 ps=1.36 w=0.42 l=0.15
X344 VGND net39 net92 VGND sky130_fd_pr__nfet_01v8 ad=0.169 pd=1.82 as=0.0878 ps=0.92 w=0.65 l=0.15
X345 VGND net52 net103 VGND sky130_fd_pr__nfet_01v8 ad=0.169 pd=1.82 as=0.0878 ps=0.92 w=0.65 l=0.15
X353 a_11693_11471# a_11527_11471# VGND VGND sky130_fd_pr__nfet_01v8 ad=0.109 pd=1.36 as=0.0567 ps=0.69 w=0.42 l=0.15
X354 net130 net87 VGND VGND sky130_fd_pr__nfet_01v8 ad=0.0878 pd=0.92 as=0.169 ps=1.82 w=0.65 l=0.15
X356 VPWR a_14951_9813# a_14867_9839# VPWR sky130_fd_pr__pfet_01v8_hvt ad=0.111 pd=1.37 as=0.0882 ps=0.84 w=0.42 l=0.15
X357 net43 net134 VPWR VPWR sky130_fd_pr__pfet_01v8_hvt ad=0.135 pd=1.27 as=0.26 ps=2.52 w=1 l=0.15
X360 VPWR net31 net167 VPWR sky130_fd_pr__pfet_01v8_hvt ad=0.26 pd=2.52 as=0.135 ps=1.27 w=1 l=0.15
X370 VPWR net3 a_14186_9295# VPWR sky130_fd_pr__pfet_01v8_hvt ad=0.14 pd=1.28 as=0.14 ps=1.28 w=1 l=0.15
X371 o_result_ring[14] a_10607_9295# VGND VGND sky130_fd_pr__nfet_01v8 ad=0.0588 pd=0.7 as=0.0588 ps=0.7 w=0.42 l=0.15
X374 a_19310_8319# a_19142_8573# VPWR VPWR sky130_fd_pr__pfet_01v8_hvt ad=0.109 pd=1.08 as=0.179 ps=1.26 w=0.75 l=0.15
X376 VGND a_14158_7231# a_14116_7119# VGND sky130_fd_pr__nfet_01v8 ad=0.121 pd=1.09 as=0.0696 ps=0.765 w=0.42 l=0.15
X379 a_18597_8751# net30 VGND VGND sky130_fd_pr__nfet_01v8 ad=0.0813 pd=0.83 as=0.109 ps=1.36 w=0.42 l=0.15
X380 a_17421_11471# _07_ a_17349_11471# VGND sky130_fd_pr__nfet_01v8 ad=0.0441 pd=0.63 as=0.0441 ps=0.63 w=0.42 l=0.15
X382 net73 net69 VPWR VPWR sky130_fd_pr__pfet_01v8_hvt ad=0.135 pd=1.27 as=0.26 ps=2.52 w=1 l=0.15
X383 VGND net74 net83 VGND sky130_fd_pr__nfet_01v8 ad=0.169 pd=1.82 as=0.0878 ps=0.92 w=0.65 l=0.15
X385 net158 net119 VGND VGND sky130_fd_pr__nfet_01v8 ad=0.0878 pd=0.92 as=0.169 ps=1.82 w=0.65 l=0.15
X386 clknet_1_0__leaf_i_stop a_11597_9269# VGND VGND sky130_fd_pr__nfet_01v8 ad=0.0588 pd=0.7 as=0.0578 ps=0.695 w=0.42 l=0.15
X387 net167 net31 VGND VGND sky130_fd_pr__nfet_01v8 ad=0.0878 pd=0.92 as=0.169 ps=1.82 w=0.65 l=0.15
X388 VPWR net108 net111 VPWR sky130_fd_pr__pfet_01v8_hvt ad=0.26 pd=2.52 as=0.135 ps=1.27 w=1 l=0.15
X389 net61 net100 VPWR VPWR sky130_fd_pr__pfet_01v8_hvt ad=0.135 pd=1.27 as=0.26 ps=2.52 w=1 l=0.15
X390 VGND net175 net52 VGND sky130_fd_pr__nfet_01v8 ad=0.169 pd=1.82 as=0.0878 ps=0.92 w=0.65 l=0.15
X392 r_dly_store_ring[11] a_10167_7637# VPWR VPWR sky130_fd_pr__pfet_01v8_hvt ad=0.26 pd=2.52 as=0.135 ps=1.27 w=1 l=0.15
X393 o_result_ring[13] a_15023_8207# VGND VGND sky130_fd_pr__nfet_01v8 ad=0.0588 pd=0.7 as=0.0703 ps=0.755 w=0.42 l=0.15
X396 VGND a_19367_7637# a_19325_8041# VGND sky130_fd_pr__nfet_01v8 ad=0.109 pd=1.36 as=0.066 ps=0.745 w=0.42 l=0.15
X397 _64_.X a_15628_8181# VGND VGND sky130_fd_pr__nfet_01v8 ad=0.0878 pd=0.92 as=0.172 ps=1.83 w=0.65 l=0.15
X401 net26 net78 VPWR VPWR sky130_fd_pr__pfet_01v8_hvt ad=0.135 pd=1.27 as=0.26 ps=2.52 w=1 l=0.15
X402 net146 net59 VGND VGND sky130_fd_pr__nfet_01v8 ad=0.0878 pd=0.92 as=0.169 ps=1.82 w=0.65 l=0.15
X403 VPWR net52 net101 VPWR sky130_fd_pr__pfet_01v8_hvt ad=0.26 pd=2.52 as=0.135 ps=1.27 w=1 l=0.15
X405 a_16941_9839# net22 VPWR VPWR sky130_fd_pr__pfet_01v8_hvt ad=0.0578 pd=0.695 as=0.109 ps=1.36 w=0.42 l=0.15
X407 VPWR r_dly_store_ctr[1] a_19899_10927# VPWR sky130_fd_pr__pfet_01v8_hvt ad=0.165 pd=1.33 as=0.265 ps=2.53 w=1 l=0.15
X409 o_result_ring[3] a_19807_9839# VGND VGND sky130_fd_pr__nfet_01v8 ad=0.0588 pd=0.7 as=0.0588 ps=0.7 w=0.42 l=0.15
X411 a_15197_6031# net6 net136 VGND sky130_fd_pr__nfet_01v8 ad=0.0878 pd=0.92 as=0.169 ps=1.82 w=0.65 l=0.15
X412 VGND a_11839_7485# a_12007_7387# VGND sky130_fd_pr__nfet_01v8 ad=0.0878 pd=0.92 as=0.169 ps=1.82 w=0.65 l=0.15
X417 VGND clknet_1_1__leaf_net3 net10 VGND sky130_fd_pr__nfet_01v8 ad=0.169 pd=1.82 as=0.0878 ps=0.92 w=0.65 l=0.15
X418 a_9313_10159# net68 VGND VGND sky130_fd_pr__nfet_01v8 ad=0.0878 pd=0.92 as=0.169 ps=1.82 w=0.65 l=0.15
X419 VGND a_16670_9295# clknet_1_1__leaf_i_stop VGND sky130_fd_pr__nfet_01v8 ad=0.111 pd=1.37 as=0.0588 ps=0.7 w=0.42 l=0.15
X421 clknet_1_1__leaf_i_stop a_16670_9295# VPWR VPWR sky130_fd_pr__pfet_01v8_hvt ad=0.14 pd=1.28 as=0.14 ps=1.28 w=1 l=0.15
X422 a_11965_8725# clknet_0_net3 VPWR VPWR sky130_fd_pr__pfet_01v8_hvt ad=0.14 pd=1.28 as=0.14 ps=1.28 w=1 l=0.15
X423 net93 net39 VPWR VPWR sky130_fd_pr__pfet_01v8_hvt ad=0.135 pd=1.27 as=0.26 ps=2.52 w=1 l=0.15
X424 net155 net153 VGND VGND sky130_fd_pr__nfet_01v8 ad=0.0878 pd=0.92 as=0.169 ps=1.82 w=0.65 l=0.15
X425 a_10083_9661# a_9301_9295# a_9999_9661# VPWR sky130_fd_pr__pfet_01v8_hvt ad=0.0882 pd=0.84 as=0.0567 ps=0.69 w=0.42 l=0.15
X426 VPWR net47 net141 VPWR sky130_fd_pr__pfet_01v8_hvt ad=0.26 pd=2.52 as=0.135 ps=1.27 w=1 l=0.15
X428 net11 clknet_1_1__leaf_net3 VPWR VPWR sky130_fd_pr__pfet_01v8_hvt ad=0.135 pd=1.27 as=0.26 ps=2.52 w=1 l=0.15
X431 VGND net43 net174 VGND sky130_fd_pr__nfet_01v8 ad=0.169 pd=1.82 as=0.0878 ps=0.92 w=0.65 l=0.15
X433 net126 net23 VPWR VPWR sky130_fd_pr__pfet_01v8_hvt ad=0.135 pd=1.27 as=0.26 ps=2.52 w=1 l=0.15
X435 a_18501_7669# a_18335_7669# VPWR VPWR sky130_fd_pr__pfet_01v8_hvt ad=0.166 pd=1.8 as=0.0864 ps=0.91 w=0.64 l=0.15
X440 a_12387_11265# w_dly_strt[3] VPWR VPWR sky130_fd_pr__pfet_01v8_hvt ad=0.0567 pd=0.69 as=0.118 ps=1.4 w=0.42 l=0.15
X442 VPWR a_14703_11636# _00_ VPWR sky130_fd_pr__pfet_01v8_hvt ad=0.115 pd=1.08 as=0.205 ps=2.1 w=0.79 l=0.15
X443 VGND a_12815_10927# o_result_ring[0] VGND sky130_fd_pr__nfet_01v8 ad=0.0588 pd=0.7 as=0.0588 ps=0.7 w=0.42 l=0.15
X444 a_10773_10749# a_10239_10383# a_10678_10749# VPWR sky130_fd_pr__pfet_01v8_hvt ad=0.0767 pd=0.785 as=0.0683 ps=0.745 w=0.42 l=0.15
X445 a_16753_9845# a_16587_9845# VPWR VPWR sky130_fd_pr__pfet_01v8_hvt ad=0.166 pd=1.8 as=0.0864 ps=0.91 w=0.64 l=0.15
X446 net27 net162 VPWR VPWR sky130_fd_pr__pfet_01v8_hvt ad=0.135 pd=1.27 as=0.26 ps=2.52 w=1 l=0.15
X453 net141 net47 VGND VGND sky130_fd_pr__nfet_01v8 ad=0.0878 pd=0.92 as=0.169 ps=1.82 w=0.65 l=0.15
X454 VGND net63 net108 VGND sky130_fd_pr__nfet_01v8 ad=0.166 pd=1.63 as=0.0588 ps=0.7 w=0.42 l=0.15
X456 net154 net149 VPWR VPWR sky130_fd_pr__pfet_01v8_hvt ad=0.135 pd=1.27 as=0.26 ps=2.52 w=1 l=0.15
X457 a_9999_7663# a_9135_7669# a_9742_7637# VPWR sky130_fd_pr__pfet_01v8_hvt ad=0.0567 pd=0.69 as=0.109 ps=1.08 w=0.42 l=0.15
X458 net164 net19 VPWR VPWR sky130_fd_pr__pfet_01v8_hvt ad=0.135 pd=1.27 as=0.26 ps=2.52 w=1 l=0.15
X461 VPWR net73 net74 VPWR sky130_fd_pr__pfet_01v8_hvt ad=0.26 pd=2.52 as=0.135 ps=1.27 w=1 l=0.15
X463 net75 net73 VGND VGND sky130_fd_pr__nfet_01v8 ad=0.0878 pd=0.92 as=0.169 ps=1.82 w=0.65 l=0.15
X464 VGND a_12134_11583# a_12092_11471# VGND sky130_fd_pr__nfet_01v8 ad=0.121 pd=1.09 as=0.0696 ps=0.765 w=0.42 l=0.15
X468 net95 net39 VPWR VPWR sky130_fd_pr__pfet_01v8_hvt ad=0.135 pd=1.27 as=0.26 ps=2.52 w=1 l=0.15
X470 net163 net19 VGND VGND sky130_fd_pr__nfet_01v8 ad=0.0878 pd=0.92 as=0.169 ps=1.82 w=0.65 l=0.15
X471 a_19057_11471# r_ring_ctr[2] VPWR VPWR sky130_fd_pr__pfet_01v8_hvt ad=0.0578 pd=0.695 as=0.109 ps=1.36 w=0.42 l=0.15
X473 _03_ a_12387_11265# VPWR VPWR sky130_fd_pr__pfet_01v8_hvt ad=0.475 pd=2.95 as=0.167 ps=1.39 w=1 l=0.15
X478 clknet_0_net3 a_14186_9295# VPWR VPWR sky130_fd_pr__pfet_01v8_hvt ad=0.14 pd=1.28 as=0.14 ps=1.28 w=1 l=0.15
X479 VPWR clknet_1_0__leaf_i_stop a_13551_8207# VPWR sky130_fd_pr__pfet_01v8_hvt ad=0.0864 pd=0.91 as=0.166 ps=1.8 w=0.64 l=0.15
X481 VPWR a_19899_10927# o_result_ctr[1] VPWR sky130_fd_pr__pfet_01v8_hvt ad=0.14 pd=1.28 as=0.14 ps=1.28 w=1 l=0.15
X482 a_10846_10495# a_10678_10749# VGND VGND sky130_fd_pr__nfet_01v8 ad=0.0989 pd=0.995 as=0.121 ps=1.09 w=0.64 l=0.15
X487 VGND net23 net125 VGND sky130_fd_pr__nfet_01v8 ad=0.169 pd=1.82 as=0.0878 ps=0.92 w=0.65 l=0.15
X488 VGND a_16423_7387# a_16381_7119# VGND sky130_fd_pr__nfet_01v8 ad=0.109 pd=1.36 as=0.066 ps=0.745 w=0.42 l=0.15
X489 VPWR a_10846_10495# a_10773_10749# VPWR sky130_fd_pr__pfet_01v8_hvt ad=0.179 pd=1.26 as=0.0767 ps=0.785 w=0.42 l=0.15
X491 VPWR a_14439_6835# o_result_ring[9] VPWR sky130_fd_pr__pfet_01v8_hvt ad=0.14 pd=1.28 as=0.14 ps=1.28 w=1 l=0.15
X492 VGND net176 net98 VGND sky130_fd_pr__nfet_01v8 ad=0.169 pd=1.82 as=0.0878 ps=0.92 w=0.65 l=0.15
X498 VGND a_11597_9269# clknet_1_0__leaf_i_stop VGND sky130_fd_pr__nfet_01v8 ad=0.0588 pd=0.7 as=0.0588 ps=0.7 w=0.42 l=0.15
X499 VPWR a_11965_8725# clknet_1_0__leaf_net3 VPWR sky130_fd_pr__pfet_01v8_hvt ad=0.14 pd=1.28 as=0.14 ps=1.28 w=1 l=0.15
X500 VGND net63 net107 VGND sky130_fd_pr__nfet_01v8 ad=0.169 pd=1.82 as=0.0878 ps=0.92 w=0.65 l=0.15
X501 VPWR net15 net185 VPWR sky130_fd_pr__pfet_01v8_hvt ad=0.26 pd=2.52 as=0.135 ps=1.27 w=1 l=0.15
X506 clknet_1_1__leaf_net3 a_16486_8751# VGND VGND sky130_fd_pr__nfet_01v8 ad=0.0588 pd=0.7 as=0.0588 ps=0.7 w=0.42 l=0.15
X507 o_result_ring[11] a_10975_7663# VGND VGND sky130_fd_pr__nfet_01v8 ad=0.0588 pd=0.7 as=0.0703 ps=0.755 w=0.42 l=0.15
X508 net118 net109 VPWR VPWR sky130_fd_pr__pfet_01v8_hvt ad=0.135 pd=1.27 as=0.26 ps=2.52 w=1 l=0.15
X514 a_14967_12015# a_14269_12021# a_14710_11989# VGND sky130_fd_pr__nfet_01v8 ad=0.0684 pd=0.74 as=0.0989 ps=0.995 w=0.36 l=0.15
X518 a_15381_10383# r_ring_ctr[0] VGND VGND sky130_fd_pr__nfet_01v8 ad=0.169 pd=1.82 as=0.107 ps=0.98 w=0.65 l=0.15
X521 a_15128_11305# a_14729_10933# a_15002_10927# VGND sky130_fd_pr__nfet_01v8 ad=0.0696 pd=0.765 as=0.0621 ps=0.705 w=0.36 l=0.15
X522 clknet_0_i_stop a_14002_8751# VPWR VPWR sky130_fd_pr__pfet_01v8_hvt ad=0.14 pd=1.28 as=0.14 ps=1.28 w=1 l=0.15
X526 net72 net18 VPWR VPWR sky130_fd_pr__pfet_01v8_hvt ad=0.135 pd=1.27 as=0.26 ps=2.52 w=1 l=0.15
X527 clknet_1_1__leaf_net3 a_16486_8751# VGND VGND sky130_fd_pr__nfet_01v8 ad=0.0588 pd=0.7 as=0.0588 ps=0.7 w=0.42 l=0.15
X528 VPWR net139 net57 VPWR sky130_fd_pr__pfet_01v8_hvt ad=0.26 pd=2.52 as=0.135 ps=1.27 w=1 l=0.15
X529 a_17811_7663# a_17029_7669# a_17727_7663# VPWR sky130_fd_pr__pfet_01v8_hvt ad=0.0882 pd=0.84 as=0.0567 ps=0.69 w=0.42 l=0.15
X531 VGND clknet_1_1__leaf_net3 net6 VGND sky130_fd_pr__nfet_01v8 ad=0.169 pd=1.82 as=0.0878 ps=0.92 w=0.65 l=0.15
X532 a_17187_11623# net113 a_17421_11471# VGND sky130_fd_pr__nfet_01v8 ad=0.109 pd=1.36 as=0.0441 ps=0.63 w=0.42 l=0.15
X533 VPWR net183 net63 VPWR sky130_fd_pr__pfet_01v8_hvt ad=0.26 pd=2.52 as=0.135 ps=1.27 w=1 l=0.15
X538 a_18689_7663# net38 VPWR VPWR sky130_fd_pr__pfet_01v8_hvt ad=0.0578 pd=0.695 as=0.109 ps=1.36 w=0.42 l=0.15
X542 VGND net121 net123 VGND sky130_fd_pr__nfet_01v8 ad=0.169 pd=1.82 as=0.0878 ps=0.92 w=0.65 l=0.15
X543 VGND a_11271_10651# a_11229_10383# VGND sky130_fd_pr__nfet_01v8 ad=0.109 pd=1.36 as=0.066 ps=0.745 w=0.42 l=0.15
X545 VGND clknet_1_0__leaf_i_stop a_11527_11471# VGND sky130_fd_pr__nfet_01v8 ad=0.0567 pd=0.69 as=0.109 ps=1.36 w=0.42 l=0.15
X546 a_18942_7637# a_18774_7663# VGND VGND sky130_fd_pr__nfet_01v8 ad=0.0989 pd=0.995 as=0.121 ps=1.09 w=0.64 l=0.15
X547 VPWR net39 net97 VPWR sky130_fd_pr__pfet_01v8_hvt ad=0.26 pd=2.52 as=0.135 ps=1.27 w=1 l=0.15
X548 net166 net31 VGND VGND sky130_fd_pr__nfet_01v8 ad=0.0878 pd=0.92 as=0.169 ps=1.82 w=0.65 l=0.15