* PEX produced on Fri Mar 29 11:25:02 PM CET 2024 using /foss/tools/osic-multitool/iic-pex.sh with m=1 and s=1
* NGSPICE file created from tdc_ring.ext - technology: sky130A

.subckt tdc_ring dbg_reset dbg_ring_ctr[0] dbg_ring_ctr[1] dbg_ring_ctr[2] dbg_ring_sig[10]
+ dbg_ring_sig[11] dbg_ring_sig[12] dbg_ring_sig[13] dbg_ring_sig[14] dbg_ring_sig[15]
+ dbg_ring_sig[2] dbg_ring_sig[5] dbg_ring_sig[7] dbg_ring_sig[9] i_start o_result_ctr[1]
+ o_result_ctr[2] o_result_ring[10] o_result_ring[12] o_result_ring[14] o_result_ring[15]
+ o_result_ring[2] o_result_ring[5] o_result_ring[7] o_result_ring[4] o_result_ring[9]
+ o_result_ring[1] dbg_ring_sig[4] dbg_ring_sig[1] dbg_ring_sig[6] o_result_ring[6]
+ o_result_ring[11] o_result_ring[3] o_result_ring[8] o_result_ring[0] o_result_ctr[0]
+ dbg_ring_sig[3] dbg_ring_sig[8] dbg_ring_sig[0] i_stop o_result_ring[13] VGND VPWR
X0 a_16861_11989# a_16643_12393# VGND VGND sky130_fd_pr__nfet_01v8 ad=0.0999 pd=0.985 as=0.135 ps=1.15 w=0.64 l=0.15
X1 VGND a_15071_11146# _01_ VGND sky130_fd_pr__nfet_01v8 ad=0.0754 pd=0.81 as=0.135 ps=1.56 w=0.52 l=0.15
X5 a_16459_10383# a_16109_10383# a_16364_10383# VPWR sky130_fd_pr__pfet_01v8_hvt ad=0.0724 pd=0.765 as=0.0651 ps=0.73 w=0.42 l=0.15
X9 VPWR a_13323_10058# w_ring_buf[15] VPWR sky130_fd_pr__pfet_01v8_hvt ad=0.115 pd=1.08 as=0.205 ps=2.1 w=0.79 l=0.15
X10 net6 a_15667_7671# VGND VGND sky130_fd_pr__nfet_01v8 ad=0.0878 pd=0.92 as=0.097 ps=0.975 w=0.65 l=0.15
X13 VGND r_dly_store_ring[8] a_16127_9839# VGND sky130_fd_pr__nfet_01v8 ad=0.0703 pd=0.755 as=0.111 ps=1.37 w=0.42 l=0.15
X14 w_ring_buf[1] a_16495_9295# VGND VGND sky130_fd_pr__nfet_01v8 ad=0.135 pd=1.56 as=0.0754 ps=0.81 w=0.52 l=0.15
X16 r_dly_store_ring[6] a_10443_9813# VPWR VPWR sky130_fd_pr__pfet_01v8_hvt ad=0.26 pd=2.52 as=0.135 ps=1.27 w=1 l=0.15
X19 r_dly_store_ring[3] a_19827_7637# VPWR VPWR sky130_fd_pr__pfet_01v8_hvt ad=0.26 pd=2.52 as=0.135 ps=1.27 w=1 l=0.15
X23 a_16677_10625# a_16459_10383# VPWR VPWR sky130_fd_pr__pfet_01v8_hvt ad=0.129 pd=1.18 as=0.218 ps=2.2 w=0.84 l=0.15
X24 a_13441_12021# a_13275_12021# VGND VGND sky130_fd_pr__nfet_01v8 ad=0.109 pd=1.36 as=0.0567 ps=0.69 w=0.42 l=0.15
X28 VPWR a_18151_9839# o_result_ring[1] VPWR sky130_fd_pr__pfet_01v8_hvt ad=0.14 pd=1.28 as=0.14 ps=1.28 w=1 l=0.15
X30 a_19793_8207# w_ring_buf[10] VPWR VPWR sky130_fd_pr__pfet_01v8_hvt ad=0.0578 pd=0.695 as=0.109 ps=1.36 w=0.42 l=0.15
X32 a_14223_12015# a_13441_12021# a_14139_12015# VPWR sky130_fd_pr__pfet_01v8_hvt ad=0.0882 pd=0.84 as=0.0567 ps=0.69 w=0.42 l=0.15
X33 a_18027_8181# w_ring_buf[10] VPWR VPWR sky130_fd_pr__pfet_01v8_hvt ad=0.265 pd=2.53 as=0.165 ps=1.33 w=1 l=0.15
X34 VPWR a_14563_9295# dbg_ring_sig[8] VPWR sky130_fd_pr__pfet_01v8_hvt ad=0.3 pd=2.6 as=0.14 ps=1.28 w=1 l=0.15
X37 a_17208_12393# a_16293_12021# a_16861_11989# VGND sky130_fd_pr__nfet_01v8 ad=0.0711 pd=0.755 as=0.0999 ps=0.985 w=0.36 l=0.15
X38 o_result_ring[8] a_16127_9839# VGND VGND sky130_fd_pr__nfet_01v8 ad=0.0588 pd=0.7 as=0.0588 ps=0.7 w=0.42 l=0.15
X44 VPWR w_ring_norsz[8] a_14103_9839# VPWR sky130_fd_pr__pfet_01v8_hvt ad=0.115 pd=1.08 as=0.205 ps=2.1 w=0.79 l=0.15
X46 VPWR a_19991_9295# o_result_ring[2] VPWR sky130_fd_pr__pfet_01v8_hvt ad=0.14 pd=1.28 as=0.14 ps=1.28 w=1 l=0.15
X47 VGND net1 w_ring_int_norsz[2] VGND sky130_fd_pr__nfet_01v8 ad=0.169 pd=1.82 as=0.0878 ps=0.92 w=0.65 l=0.15
X48 VGND a_10699_7119# o_result_ring[13] VGND sky130_fd_pr__nfet_01v8 ad=0.0588 pd=0.7 as=0.0588 ps=0.7 w=0.42 l=0.15
X49 dbg_ring_ctr[2] a_18763_11445# VPWR VPWR sky130_fd_pr__pfet_01v8_hvt ad=0.14 pd=1.28 as=0.3 ps=2.6 w=1 l=0.15
X57 a_19973_11837# a_19439_11471# a_19878_11837# VPWR sky130_fd_pr__pfet_01v8_hvt ad=0.0767 pd=0.785 as=0.0683 ps=0.745 w=0.42 l=0.15
X59 a_19142_10749# a_18703_10383# a_19057_10383# VGND sky130_fd_pr__nfet_01v8 ad=0.0621 pd=0.705 as=0.0813 ps=0.83 w=0.36 l=0.15
X61 a_12500_11445# net5 VPWR VPWR sky130_fd_pr__pfet_01v8_hvt ad=0.166 pd=1.8 as=0.149 ps=1.33 w=0.64 l=0.15
X65 a_12173_8751# w_ring_int_norsz[14] VPWR VPWR sky130_fd_pr__pfet_01v8_hvt ad=0.135 pd=1.27 as=0.26 ps=2.52 w=1 l=0.15
X66 r_dly_store_ring[14] a_10443_8725# VPWR VPWR sky130_fd_pr__pfet_01v8_hvt ad=0.26 pd=2.52 as=0.135 ps=1.27 w=1 l=0.15
X67 w_ring_norsz[1] w_ring_int_norsz[1] VGND VGND sky130_fd_pr__nfet_01v8 ad=0.0878 pd=0.92 as=0.169 ps=1.82 w=0.65 l=0.15
X68 VGND a_20303_8573# a_20471_8475# VGND sky130_fd_pr__nfet_01v8 ad=0.0878 pd=0.92 as=0.169 ps=1.82 w=0.65 l=0.15
X72 VGND a_14583_7387# a_14541_7119# VGND sky130_fd_pr__nfet_01v8 ad=0.109 pd=1.36 as=0.066 ps=0.745 w=0.42 l=0.15
X78 VPWR a_10563_8372# w_ring_buf[13] VPWR sky130_fd_pr__pfet_01v8_hvt ad=0.115 pd=1.08 as=0.205 ps=2.1 w=0.79 l=0.15
X79 w_ring_norsz[1] net3 VGND VGND sky130_fd_pr__nfet_01v8 ad=0.169 pd=1.82 as=0.0878 ps=0.92 w=0.65 l=0.15
X84 a_11901_8751# w_ring_norsz[13] VPWR VPWR sky130_fd_pr__pfet_01v8_hvt ad=0.105 pd=1.21 as=0.26 ps=2.52 w=1 l=0.15
X89 w_ring_buf[3] a_18703_8207# VGND VGND sky130_fd_pr__nfet_01v8 ad=0.135 pd=1.56 as=0.0754 ps=0.81 w=0.52 l=0.15
X91 VGND a_18763_11445# dbg_ring_ctr[2] VGND sky130_fd_pr__nfet_01v8 ad=0.0703 pd=0.755 as=0.0588 ps=0.7 w=0.42 l=0.15
X94 VGND a_20175_10383# o_result_ctr[0] VGND sky130_fd_pr__nfet_01v8 ad=0.0588 pd=0.7 as=0.0588 ps=0.7 w=0.42 l=0.15
X96 r_dly_store_ctr[1] a_20471_11739# VGND VGND sky130_fd_pr__nfet_01v8 ad=0.169 pd=1.82 as=0.0878 ps=0.92 w=0.65 l=0.15
X101 a_9765_8751# w_ring_buf[14] VGND VGND sky130_fd_pr__nfet_01v8 ad=0.0813 pd=0.83 as=0.109 ps=1.36 w=0.42 l=0.15
X104 a_12500_11445# net5 VGND VGND sky130_fd_pr__nfet_01v8 ad=0.109 pd=1.36 as=0.097 ps=0.975 w=0.42 l=0.15
X107 o_result_ring[1] a_18151_9839# VGND VGND sky130_fd_pr__nfet_01v8 ad=0.0588 pd=0.7 as=0.0588 ps=0.7 w=0.42 l=0.15
X112 r_dly_store_ring[1] a_17711_9813# VGND VGND sky130_fd_pr__nfet_01v8 ad=0.169 pd=1.82 as=0.0878 ps=0.92 w=0.65 l=0.15
X118 VPWR i_start a_12355_591# VPWR sky130_fd_pr__pfet_01v8_hvt ad=0.162 pd=1.33 as=0.265 ps=2.53 w=1 l=0.15
X119 a_11759_8372# w_ring_norsz[5] VPWR VPWR sky130_fd_pr__pfet_01v8_hvt ad=0.205 pd=2.1 as=0.115 ps=1.08 w=0.79 l=0.15
X121 VGND net7 a_11343_11471# VGND sky130_fd_pr__nfet_01v8 ad=0.0754 pd=0.81 as=0.135 ps=1.56 w=0.52 l=0.15
X124 VGND a_10975_9839# o_result_ring[6] VGND sky130_fd_pr__nfet_01v8 ad=0.122 pd=1.42 as=0.0588 ps=0.7 w=0.42 l=0.15
X132 VGND a_20911_11471# o_result_ctr[1] VGND sky130_fd_pr__nfet_01v8 ad=0.0588 pd=0.7 as=0.0588 ps=0.7 w=0.42 l=0.15
X138 a_12797_10933# a_12631_10933# VPWR VPWR sky130_fd_pr__pfet_01v8_hvt ad=0.166 pd=1.8 as=0.0864 ps=0.91 w=0.64 l=0.15
R0 VGND net15 sky130_fd_pr__res_generic_po w=0.48 l=0.045
X140 a_14415_7485# a_13551_7119# a_14158_7231# VPWR sky130_fd_pr__pfet_01v8_hvt ad=0.0567 pd=0.69 as=0.109 ps=1.08 w=0.42 l=0.15
X141 a_17635_7663# a_16937_7669# a_17378_7637# VGND sky130_fd_pr__nfet_01v8 ad=0.0684 pd=0.74 as=0.0989 ps=0.995 w=0.36 l=0.15
X142 VGND a_10443_7637# a_10401_8041# VGND sky130_fd_pr__nfet_01v8 ad=0.109 pd=1.36 as=0.066 ps=0.745 w=0.42 l=0.15
X143 a_17562_12381# _05_ VGND VGND sky130_fd_pr__nfet_01v8 ad=0.064 pd=0.725 as=0.125 ps=1.01 w=0.42 l=0.15
X144 a_11141_10933# a_10975_10933# VGND VGND sky130_fd_pr__nfet_01v8 ad=0.109 pd=1.36 as=0.0567 ps=0.69 w=0.42 l=0.15
X145 VGND a_12355_591# net1 VGND sky130_fd_pr__nfet_01v8 ad=0.109 pd=1.36 as=0.0567 ps=0.69 w=0.42 l=0.15
X147 net2 a_9814_591# VGND VGND sky130_fd_pr__nfet_01v8 ad=0.169 pd=1.82 as=0.097 ps=0.975 w=0.65 l=0.15
X149 a_12725_9545# w_ring_int_norsz[7] VPWR VPWR sky130_fd_pr__pfet_01v8_hvt ad=0.135 pd=1.27 as=0.26 ps=2.52 w=1 l=0.15
X150 VPWR w_ring_norsz[4] a_14001_8457# VPWR sky130_fd_pr__pfet_01v8_hvt ad=0.26 pd=2.52 as=0.105 ps=1.21 w=1 l=0.15
X160 VPWR w_ring_int_norsz[5] a_13717_8457# VPWR sky130_fd_pr__pfet_01v8_hvt ad=0.26 pd=2.52 as=0.135 ps=1.27 w=1 l=0.15
X164 VPWR a_10018_9813# a_9945_9839# VPWR sky130_fd_pr__pfet_01v8_hvt ad=0.179 pd=1.26 as=0.0767 ps=0.785 w=0.42 l=0.15
X165 VGND a_9747_7093# dbg_ring_sig[13] VGND sky130_fd_pr__nfet_01v8 ad=0.0588 pd=0.7 as=0.0588 ps=0.7 w=0.42 l=0.15
X166 r_dly_store_ctr[2] a_19735_11989# VGND VGND sky130_fd_pr__nfet_01v8 ad=0.169 pd=1.82 as=0.0878 ps=0.92 w=0.65 l=0.15
X169 VGND a_10275_9839# a_10443_9813# VGND sky130_fd_pr__nfet_01v8 ad=0.0878 pd=0.92 as=0.169 ps=1.82 w=0.65 l=0.15
X172 VPWR net5 _04_ VPWR sky130_fd_pr__pfet_01v8_hvt ad=0.26 pd=2.52 as=0.135 ps=1.27 w=1 l=0.15
X173 r_dly_store_ring[9] a_20379_9813# VPWR VPWR sky130_fd_pr__pfet_01v8_hvt ad=0.26 pd=2.52 as=0.135 ps=1.27 w=1 l=0.15
X177 a_20387_8573# a_19605_8207# a_20303_8573# VPWR sky130_fd_pr__pfet_01v8_hvt ad=0.0882 pd=0.84 as=0.0567 ps=0.69 w=0.42 l=0.15
X179 dbg_ring_sig[8] a_14563_9295# VGND VGND sky130_fd_pr__nfet_01v8 ad=0.0588 pd=0.7 as=0.0703 ps=0.755 w=0.42 l=0.15
X181 a_16459_10383# a_15943_10383# a_16364_10383# VGND sky130_fd_pr__nfet_01v8 ad=0.0594 pd=0.69 as=0.066 ps=0.745 w=0.36 l=0.15
R1 net14 VGND sky130_fd_pr__res_generic_po w=0.48 l=0.045
X185 VGND w_ring_norsz[11] w_ring_int_norsz[12] VGND sky130_fd_pr__nfet_01v8 ad=0.169 pd=1.82 as=0.0878 ps=0.92 w=0.65 l=0.15
X186 o_result_ctr[0] a_20175_10383# VPWR VPWR sky130_fd_pr__pfet_01v8_hvt ad=0.14 pd=1.28 as=0.14 ps=1.28 w=1 l=0.15
X187 VPWR w_ring_norsz[9] a_17405_9545# VPWR sky130_fd_pr__pfet_01v8_hvt ad=0.26 pd=2.52 as=0.105 ps=1.21 w=1 l=0.15
X189 a_17627_9839# a_16845_9845# a_17543_9839# VPWR sky130_fd_pr__pfet_01v8_hvt ad=0.0882 pd=0.84 as=0.0567 ps=0.69 w=0.42 l=0.15
X190 w_ring_norsz[15] net3 VGND VGND sky130_fd_pr__nfet_01v8 ad=0.169 pd=1.82 as=0.0878 ps=0.92 w=0.65 l=0.15
X194 VGND net7 a_13275_12021# VGND sky130_fd_pr__nfet_01v8 ad=0.0567 pd=0.69 as=0.109 ps=1.36 w=0.42 l=0.15
X195 a_16293_9545# w_ring_norsz[1] a_16209_9545# VPWR sky130_fd_pr__pfet_01v8_hvt ad=0.135 pd=1.27 as=0.135 ps=1.27 w=1 l=0.15
X199 VGND _07_ a_18057_12335# VGND sky130_fd_pr__nfet_01v8 ad=0.169 pd=1.82 as=0.0878 ps=0.92 w=0.65 l=0.15
X200 o_result_ring[4] a_14839_6575# VGND VGND sky130_fd_pr__nfet_01v8 ad=0.0588 pd=0.7 as=0.0703 ps=0.755 w=0.42 l=0.15
X202 VGND r_ring_ctr[0] a_18141_11471# VGND sky130_fd_pr__nfet_01v8 ad=0.169 pd=1.82 as=0.0878 ps=0.92 w=0.65 l=0.15
X203 o_result_ring[8] a_16127_9839# VGND VGND sky130_fd_pr__nfet_01v8 ad=0.0588 pd=0.7 as=0.0703 ps=0.755 w=0.42 l=0.15
X208 VPWR a_10018_8725# a_9945_8751# VPWR sky130_fd_pr__pfet_01v8_hvt ad=0.179 pd=1.26 as=0.0767 ps=0.785 w=0.42 l=0.15
X210 _05_ net5 VGND VGND sky130_fd_pr__nfet_01v8 ad=0.0878 pd=0.92 as=0.169 ps=1.82 w=0.65 l=0.15
X211 a_9556_8181# net2 VGND VGND sky130_fd_pr__nfet_01v8 ad=0.109 pd=1.36 as=0.097 ps=0.975 w=0.42 l=0.15
X216 w_ring_norsz[2] net4 a_15937_9545# VPWR sky130_fd_pr__pfet_01v8_hvt ad=0.26 pd=2.52 as=0.135 ps=1.27 w=1 l=0.15
X219 VPWR w_ring_norsz[12] a_14747_7663# VPWR sky130_fd_pr__pfet_01v8_hvt ad=0.115 pd=1.08 as=0.205 ps=2.1 w=0.79 l=0.15
X220 a_20429_11471# a_19439_11471# a_20303_11837# VGND sky130_fd_pr__nfet_01v8 ad=0.066 pd=0.745 as=0.0684 ps=0.74 w=0.36 l=0.15
X225 VGND a_14747_12015# o_result_ring[0] VGND sky130_fd_pr__nfet_01v8 ad=0.122 pd=1.42 as=0.0588 ps=0.7 w=0.42 l=0.15
X226 VPWR a_18887_7119# dbg_ring_sig[3] VPWR sky130_fd_pr__pfet_01v8_hvt ad=0.3 pd=2.6 as=0.14 ps=1.28 w=1 l=0.15
X228 VPWR a_14583_7387# a_14499_7485# VPWR sky130_fd_pr__pfet_01v8_hvt ad=0.111 pd=1.37 as=0.0882 ps=0.84 w=0.42 l=0.15
X229 a_18869_10383# a_18703_10383# VPWR VPWR sky130_fd_pr__pfet_01v8_hvt ad=0.166 pd=1.8 as=0.0864 ps=0.91 w=0.64 l=0.15
X233 VGND w_ring_norsz[9] a_18887_9295# VGND sky130_fd_pr__nfet_01v8 ad=0.0754 pd=0.81 as=0.135 ps=1.56 w=0.52 l=0.15
X234 VPWR a_17383_12319# a_17370_12015# VPWR sky130_fd_pr__pfet_01v8_hvt ad=0.0819 pd=0.81 as=0.0567 ps=0.69 w=0.42 l=0.15
X244 VGND w_ring_buf[1] a_16771_9295# VGND sky130_fd_pr__nfet_01v8 ad=0.0703 pd=0.755 as=0.111 ps=1.37 w=0.42 l=0.15
X247 a_19912_10217# a_19513_9845# a_19786_9839# VGND sky130_fd_pr__nfet_01v8 ad=0.0696 pd=0.765 as=0.0621 ps=0.705 w=0.36 l=0.15
R2 g_ring3[12].stg01_11.HI VPWR sky130_fd_pr__res_generic_po w=0.48 l=0.045
X261 VPWR a_18027_8181# dbg_ring_sig[10] VPWR sky130_fd_pr__pfet_01v8_hvt ad=0.14 pd=1.28 as=0.14 ps=1.28 w=1 l=0.15
X262 a_14369_8457# net1 w_ring_int_norsz[4] VPWR sky130_fd_pr__pfet_01v8_hvt ad=0.105 pd=1.21 as=0.26 ps=2.52 w=1 l=0.15
X263 o_result_ring[6] a_10975_9839# VGND VGND sky130_fd_pr__nfet_01v8 ad=0.0588 pd=0.7 as=0.0703 ps=0.755 w=0.42 l=0.15
X266 VGND a_20083_10935# _60_.X VGND sky130_fd_pr__nfet_01v8 ad=0.172 pd=1.83 as=0.0878 ps=0.92 w=0.65 l=0.15
X268 r_dly_store_ring[2] a_19367_8725# VPWR VPWR sky130_fd_pr__pfet_01v8_hvt ad=0.26 pd=2.52 as=0.135 ps=1.27 w=1 l=0.15
X272 VPWR net6 a_18703_12021# VPWR sky130_fd_pr__pfet_01v8_hvt ad=0.0864 pd=0.91 as=0.166 ps=1.8 w=0.64 l=0.15
X277 a_14116_7119# a_13717_7119# a_13990_7485# VGND sky130_fd_pr__nfet_01v8 ad=0.0696 pd=0.765 as=0.0621 ps=0.705 w=0.36 l=0.15
X278 VGND a_19827_7637# a_19785_8041# VGND sky130_fd_pr__nfet_01v8 ad=0.109 pd=1.36 as=0.066 ps=0.745 w=0.42 l=0.15
X279 a_19878_8573# a_19605_8207# a_19793_8207# VPWR sky130_fd_pr__pfet_01v8_hvt ad=0.0683 pd=0.745 as=0.0578 ps=0.695 w=0.42 l=0.15
X280 a_18763_11445# r_ring_ctr[2] VGND VGND sky130_fd_pr__nfet_01v8 ad=0.111 pd=1.37 as=0.0703 ps=0.755 w=0.42 l=0.15
X285 dbg_ring_sig[1] a_16771_9295# VGND VGND sky130_fd_pr__nfet_01v8 ad=0.0588 pd=0.7 as=0.0588 ps=0.7 w=0.42 l=0.15
X288 o_result_ring[1] a_18151_9839# VPWR VPWR sky130_fd_pr__pfet_01v8_hvt ad=0.14 pd=1.28 as=0.14 ps=1.28 w=1 l=0.15
X293 VGND net7 a_9411_7669# VGND sky130_fd_pr__nfet_01v8 ad=0.0567 pd=0.69 as=0.109 ps=1.36 w=0.42 l=0.15
X294 a_13795_11445# w_ring_buf[0] VPWR VPWR sky130_fd_pr__pfet_01v8_hvt ad=0.265 pd=2.53 as=0.165 ps=1.33 w=1 l=0.15
X295 VGND a_10851_10357# dbg_ring_sig[7] VGND sky130_fd_pr__nfet_01v8 ad=0.0588 pd=0.7 as=0.0588 ps=0.7 w=0.42 l=0.15
X296 VGND w_ring_norsz[10] w_ring_norsz[3] VGND sky130_fd_pr__nfet_01v8 ad=0.0878 pd=0.92 as=0.0878 ps=0.92 w=0.65 l=0.15
X299 a_19651_10749# a_18869_10383# a_19567_10749# VPWR sky130_fd_pr__pfet_01v8_hvt ad=0.0882 pd=0.84 as=0.0567 ps=0.69 w=0.42 l=0.15
X301 _00_ r_ring_ctr[0] VPWR VPWR sky130_fd_pr__pfet_01v8_hvt ad=0.135 pd=1.27 as=0.26 ps=2.52 w=1 l=0.15
X302 VGND a_12500_10357# net4 VGND sky130_fd_pr__nfet_01v8 ad=0.097 pd=0.975 as=0.0878 ps=0.92 w=0.65 l=0.15
X309 o_result_ring[2] a_19991_9295# VPWR VPWR sky130_fd_pr__pfet_01v8_hvt ad=0.14 pd=1.28 as=0.14 ps=1.28 w=1 l=0.15
X310 r_dly_store_ring[3] a_19827_7637# VGND VGND sky130_fd_pr__nfet_01v8 ad=0.169 pd=1.82 as=0.0878 ps=0.92 w=0.65 l=0.15
X314 a_15887_7485# a_15189_7119# a_15630_7231# VGND sky130_fd_pr__nfet_01v8 ad=0.0684 pd=0.74 as=0.0989 ps=0.995 w=0.36 l=0.15
X315 a_18961_7669# a_18795_7669# VPWR VPWR sky130_fd_pr__pfet_01v8_hvt ad=0.166 pd=1.8 as=0.0864 ps=0.91 w=0.64 l=0.15
X318 VGND net7 a_10975_10933# VGND sky130_fd_pr__nfet_01v8 ad=0.0567 pd=0.69 as=0.109 ps=1.36 w=0.42 l=0.15
X324 a_20004_11471# a_19605_11471# a_19878_11837# VGND sky130_fd_pr__nfet_01v8 ad=0.0696 pd=0.765 as=0.0621 ps=0.705 w=0.36 l=0.15
X327 r_dly_store_ctr[1] a_20471_11739# VPWR VPWR sky130_fd_pr__pfet_01v8_hvt ad=0.26 pd=2.52 as=0.135 ps=1.27 w=1 l=0.15
X330 VGND a_14158_7231# a_14116_7119# VGND sky130_fd_pr__nfet_01v8 ad=0.121 pd=1.09 as=0.0696 ps=0.765 w=0.42 l=0.15
X331 w_ring_buf[11] a_16403_8207# VPWR VPWR sky130_fd_pr__pfet_01v8_hvt ad=0.205 pd=2.1 as=0.115 ps=1.08 w=0.79 l=0.15
X335 VGND a_9747_7093# dbg_ring_sig[13] VGND sky130_fd_pr__nfet_01v8 ad=0.0703 pd=0.755 as=0.0588 ps=0.7 w=0.42 l=0.15
X336 VPWR a_17659_11623# _08_ VPWR sky130_fd_pr__pfet_01v8_hvt ad=0.167 pd=1.39 as=0.475 ps=2.95 w=1 l=0.15
X339 a_17210_7663# a_16771_7669# a_17125_7663# VGND sky130_fd_pr__nfet_01v8 ad=0.0621 pd=0.705 as=0.0813 ps=0.83 w=0.36 l=0.15
X340 VGND a_18887_7119# dbg_ring_sig[3] VGND sky130_fd_pr__nfet_01v8 ad=0.122 pd=1.42 as=0.0588 ps=0.7 w=0.42 l=0.15
R3 VGND net13 sky130_fd_pr__res_generic_po w=0.48 l=0.045
X345 _04_ net5 VPWR VPWR sky130_fd_pr__pfet_01v8_hvt ad=0.135 pd=1.27 as=0.26 ps=2.52 w=1 l=0.15
X346 w_ring_int_norsz[3] net1 VGND VGND sky130_fd_pr__nfet_01v8 ad=0.0878 pd=0.92 as=0.169 ps=1.82 w=0.65 l=0.15
X347 net3 a_12224_9813# VPWR VPWR sky130_fd_pr__pfet_01v8_hvt ad=0.135 pd=1.27 as=0.265 ps=2.53 w=1 l=0.15
X350 VGND w_ring_int_norsz[13] w_ring_norsz[13] VGND sky130_fd_pr__nfet_01v8 ad=0.169 pd=1.82 as=0.0878 ps=0.92 w=0.65 l=0.15
X351 a_11923_10927# a_11141_10933# a_11839_10927# VPWR sky130_fd_pr__pfet_01v8_hvt ad=0.0882 pd=0.84 as=0.0567 ps=0.69 w=0.42 l=0.15
X355 VGND a_13323_10058# w_ring_buf[15] VGND sky130_fd_pr__nfet_01v8 ad=0.0754 pd=0.81 as=0.135 ps=1.56 w=0.52 l=0.15
X356 a_13714_12015# a_13275_12021# a_13629_12015# VGND sky130_fd_pr__nfet_01v8 ad=0.0621 pd=0.705 as=0.0813 ps=0.83 w=0.36 l=0.15
X363 a_11540_11305# a_11141_10933# a_11414_10927# VGND sky130_fd_pr__nfet_01v8 ad=0.0696 pd=0.765 as=0.0621 ps=0.705 w=0.36 l=0.15
X367 VGND a_12875_10357# dbg_ring_sig[15] VGND sky130_fd_pr__nfet_01v8 ad=0.0588 pd=0.7 as=0.0588 ps=0.7 w=0.42 l=0.15
X368 w_ring_norsz[4] net3 a_15109_8457# VPWR sky130_fd_pr__pfet_01v8_hvt ad=0.26 pd=2.52 as=0.135 ps=1.27 w=1 l=0.15
X374 a_17336_8041# a_16937_7669# a_17210_7663# VGND sky130_fd_pr__nfet_01v8 ad=0.0696 pd=0.765 as=0.0621 ps=0.705 w=0.36 l=0.15
X379 a_18057_12335# a_18015_12247# _02_ VGND sky130_fd_pr__nfet_01v8 ad=0.0878 pd=0.92 as=0.195 ps=1.9 w=0.65 l=0.15
X383 VPWR a_12875_10357# dbg_ring_sig[15] VPWR sky130_fd_pr__pfet_01v8_hvt ad=0.165 pd=1.33 as=0.14 ps=1.28 w=1 l=0.15
X386 VGND w_ring_buf[0] a_15943_10383# VGND sky130_fd_pr__nfet_01v8 ad=0.0567 pd=0.69 as=0.109 ps=1.36 w=0.42 l=0.15
X389 a_17033_9839# w_ring_buf[1] VGND VGND sky130_fd_pr__nfet_01v8 ad=0.0813 pd=0.83 as=0.109 ps=1.36 w=0.42 l=0.15
X397 a_19973_8573# a_19439_8207# a_19878_8573# VPWR sky130_fd_pr__pfet_01v8_hvt ad=0.0767 pd=0.785 as=0.0683 ps=0.745 w=0.42 l=0.15
X398 a_15887_7485# a_15023_7119# a_15630_7231# VPWR sky130_fd_pr__pfet_01v8_hvt ad=0.0567 pd=0.69 as=0.109 ps=1.08 w=0.42 l=0.15
X399 VGND r_dly_store_ctr[2] a_20175_12015# VGND sky130_fd_pr__nfet_01v8 ad=0.0703 pd=0.755 as=0.111 ps=1.37 w=0.42 l=0.15
X400 a_12985_10927# w_ring_buf[15] VGND VGND sky130_fd_pr__nfet_01v8 ad=0.0813 pd=0.83 as=0.109 ps=1.36 w=0.42 l=0.15
X407 VGND a_14563_9295# dbg_ring_sig[8] VGND sky130_fd_pr__nfet_01v8 ad=0.0588 pd=0.7 as=0.0588 ps=0.7 w=0.42 l=0.15
X409 VPWR i_stop a_9814_591# VPWR sky130_fd_pr__pfet_01v8_hvt ad=0.141 pd=1.33 as=0.109 ps=1.36 w=0.42 l=0.15
X411 a_19402_7637# a_19234_7663# VGND VGND sky130_fd_pr__nfet_01v8 ad=0.0989 pd=0.995 as=0.121 ps=1.09 w=0.64 l=0.15
X427 o_result_ctr[2] a_20175_12015# VPWR VPWR sky130_fd_pr__pfet_01v8_hvt ad=0.14 pd=1.28 as=0.14 ps=1.28 w=1 l=0.15
X429 a_9850_9839# a_9577_9845# a_9765_9839# VPWR sky130_fd_pr__pfet_01v8_hvt ad=0.0683 pd=0.745 as=0.0578 ps=0.695 w=0.42 l=0.15
X436 a_15076_11471# _01_ VGND VGND sky130_fd_pr__nfet_01v8 ad=0.066 pd=0.745 as=0.221 ps=1.89 w=0.42 l=0.15
X437 VGND w_ring_norsz[8] a_14103_9839# VGND sky130_fd_pr__nfet_01v8 ad=0.0754 pd=0.81 as=0.135 ps=1.56 w=0.52 l=0.15
X445 a_19310_11989# a_19142_12015# VPWR VPWR sky130_fd_pr__pfet_01v8_hvt ad=0.109 pd=1.08 as=0.179 ps=1.26 w=0.75 l=0.15
X447 w_ring_norsz[4] w_ring_int_norsz[4] VGND VGND sky130_fd_pr__nfet_01v8 ad=0.0878 pd=0.92 as=0.169 ps=1.82 w=0.65 l=0.15
X448 a_9765_9839# w_ring_buf[6] VGND VGND sky130_fd_pr__nfet_01v8 ad=0.0813 pd=0.83 as=0.109 ps=1.36 w=0.42 l=0.15
X450 dbg_ring_sig[2] a_17783_8751# VGND VGND sky130_fd_pr__nfet_01v8 ad=0.0588 pd=0.7 as=0.0703 ps=0.755 w=0.42 l=0.15
X453 a_19142_12015# a_18869_12021# a_19057_12015# VPWR sky130_fd_pr__pfet_01v8_hvt ad=0.0683 pd=0.745 as=0.0578 ps=0.695 w=0.42 l=0.15
X457 VPWR r_dly_store_ring[9] a_21279_9839# VPWR sky130_fd_pr__pfet_01v8_hvt ad=0.165 pd=1.33 as=0.265 ps=2.53 w=1 l=0.15
X459 VPWR r_ring_ctr[1] a_19531_10927# VPWR sky130_fd_pr__pfet_01v8_hvt ad=0.165 pd=1.33 as=0.265 ps=2.53 w=1 l=0.15
X460 a_19567_10749# a_18703_10383# a_19310_10495# VPWR sky130_fd_pr__pfet_01v8_hvt ad=0.0567 pd=0.69 as=0.109 ps=1.08 w=0.42 l=0.15
X463 a_19237_10749# a_18703_10383# a_19142_10749# VPWR sky130_fd_pr__pfet_01v8_hvt ad=0.0767 pd=0.785 as=0.0683 ps=0.745 w=0.42 l=0.15
X464 VPWR a_11863_10357# o_result_ring[7] VPWR sky130_fd_pr__pfet_01v8_hvt ad=0.14 pd=1.28 as=0.14 ps=1.28 w=1 l=0.15
X465 VPWR w_ring_int_norsz[12] a_14729_8457# VPWR sky130_fd_pr__pfet_01v8_hvt ad=0.26 pd=2.52 as=0.135 ps=1.27 w=1 l=0.15
X468 VPWR w_ring_int_norsz[11] a_16293_8751# VPWR sky130_fd_pr__pfet_01v8_hvt ad=0.26 pd=2.52 as=0.135 ps=1.27 w=1 l=0.15
X469 a_9850_8751# a_9577_8757# a_9765_8751# VPWR sky130_fd_pr__pfet_01v8_hvt ad=0.0683 pd=0.745 as=0.0578 ps=0.695 w=0.42 l=0.15
X472 VPWR a_13795_11445# dbg_ring_sig[0] VPWR sky130_fd_pr__pfet_01v8_hvt ad=0.14 pd=1.28 as=0.14 ps=1.28 w=1 l=0.15
X474 VPWR a_16677_10625# a_16567_10749# VPWR sky130_fd_pr__pfet_01v8_hvt ad=0.0703 pd=0.755 as=0.116 ps=0.97 w=0.42 l=0.15
R4 VGND net11 sky130_fd_pr__res_generic_po w=0.48 l=0.045
X482 VGND a_10018_8725# a_9976_9129# VGND sky130_fd_pr__nfet_01v8 ad=0.121 pd=1.09 as=0.0696 ps=0.765 w=0.42 l=0.15
X486 a_15462_7485# a_15023_7119# a_15377_7119# VGND sky130_fd_pr__nfet_01v8 ad=0.0621 pd=0.705 as=0.0813 ps=0.83 w=0.36 l=0.15
X489 VPWR a_14103_10927# o_result_ring[15] VPWR sky130_fd_pr__pfet_01v8_hvt ad=0.3 pd=2.6 as=0.14 ps=1.28 w=1 l=0.15
X492 a_11858_7637# a_11690_7663# VPWR VPWR sky130_fd_pr__pfet_01v8_hvt ad=0.109 pd=1.08 as=0.179 ps=1.26 w=0.75 l=0.15
X496 a_19310_10495# a_19142_10749# VGND VGND sky130_fd_pr__nfet_01v8 ad=0.0989 pd=0.995 as=0.121 ps=1.09 w=0.64 l=0.15
X498 r_dly_store_ring[14] a_10443_8725# VGND VGND sky130_fd_pr__nfet_01v8 ad=0.169 pd=1.82 as=0.0878 ps=0.92 w=0.65 l=0.15
X499 o_result_ctr[1] a_20911_11471# VPWR VPWR sky130_fd_pr__pfet_01v8_hvt ad=0.14 pd=1.28 as=0.14 ps=1.28 w=1 l=0.15
X501 VPWR r_dly_store_ring[10] a_21279_8751# VPWR sky130_fd_pr__pfet_01v8_hvt ad=0.165 pd=1.33 as=0.265 ps=2.53 w=1 l=0.15
X503 VPWR r_dly_store_ring[1] a_18151_9839# VPWR sky130_fd_pr__pfet_01v8_hvt ad=0.165 pd=1.33 as=0.265 ps=2.53 w=1 l=0.15
X504 a_11417_7669# a_11251_7669# VPWR VPWR sky130_fd_pr__pfet_01v8_hvt ad=0.166 pd=1.8 as=0.0864 ps=0.91 w=0.64 l=0.15
X505 dbg_ring_sig[10] a_18027_8181# VPWR VPWR sky130_fd_pr__pfet_01v8_hvt ad=0.14 pd=1.28 as=0.14 ps=1.28 w=1 l=0.15
X508 a_16555_10383# a_16109_10383# a_16459_10383# VGND sky130_fd_pr__nfet_01v8 ad=0.14 pd=1.1 as=0.0594 ps=0.69 w=0.36 l=0.15
X509 w_ring_int_norsz[8] net8 VGND VGND sky130_fd_pr__nfet_01v8 ad=0.0878 pd=0.92 as=0.169 ps=1.82 w=0.65 l=0.15
X513 a_11509_10927# a_10975_10933# a_11414_10927# VPWR sky130_fd_pr__pfet_01v8_hvt ad=0.0767 pd=0.785 as=0.0683 ps=0.745 w=0.42 l=0.15
X514 VPWR a_19439_9295# dbg_ring_sig[9] VPWR sky130_fd_pr__pfet_01v8_hvt ad=0.3 pd=2.6 as=0.14 ps=1.28 w=1 l=0.15
X516 w_ring_norsz[0] net4 a_12717_9839# VPWR sky130_fd_pr__pfet_01v8_hvt ad=0.26 pd=2.52 as=0.135 ps=1.27 w=1 l=0.15
X517 VGND a_21279_9839# o_result_ring[9] VGND sky130_fd_pr__nfet_01v8 ad=0.0588 pd=0.7 as=0.0588 ps=0.7 w=0.42 l=0.15
X518 a_19605_11471# a_19439_11471# VGND VGND sky130_fd_pr__nfet_01v8 ad=0.109 pd=1.36 as=0.0567 ps=0.69 w=0.42 l=0.15
X521 VPWR a_15911_11445# a_15898_11837# VPWR sky130_fd_pr__pfet_01v8_hvt ad=0.0819 pd=0.81 as=0.0567 ps=0.69 w=0.42 l=0.15
X522 a_10275_7663# a_9411_7669# a_10018_7637# VPWR sky130_fd_pr__pfet_01v8_hvt ad=0.0567 pd=0.69 as=0.109 ps=1.08 w=0.42 l=0.15
X524 VGND net3 w_ring_norsz[5] VGND sky130_fd_pr__nfet_01v8 ad=0.0878 pd=0.92 as=0.169 ps=1.82 w=0.65 l=0.15
X527 VGND r_dly_store_ring[0] a_14747_12015# VGND sky130_fd_pr__nfet_01v8 ad=0.0703 pd=0.755 as=0.111 ps=1.37 w=0.42 l=0.15
X529 VPWR a_19991_9295# o_result_ring[2] VPWR sky130_fd_pr__pfet_01v8_hvt ad=0.3 pd=2.6 as=0.14 ps=1.28 w=1 l=0.15
X533 a_15588_7119# a_15189_7119# a_15462_7485# VGND sky130_fd_pr__nfet_01v8 ad=0.0696 pd=0.765 as=0.0621 ps=0.705 w=0.36 l=0.15
X535 w_ring_int_norsz[14] net13 a_11901_8751# VPWR sky130_fd_pr__pfet_01v8_hvt ad=0.26 pd=2.52 as=0.105 ps=1.21 w=1 l=0.15
X543 VPWR a_14839_6575# o_result_ring[4] VPWR sky130_fd_pr__pfet_01v8_hvt ad=0.3 pd=2.6 as=0.14 ps=1.28 w=1 l=0.15
X548 r_ring_ctr[1] a_15911_11445# VPWR VPWR sky130_fd_pr__pfet_01v8_hvt ad=0.26 pd=2.52 as=0.301 ps=2.66 w=1 l=0.15
X549 a_19402_7637# a_19234_7663# VPWR VPWR sky130_fd_pr__pfet_01v8_hvt ad=0.109 pd=1.08 as=0.179 ps=1.26 w=0.75 l=0.15
X558 w_ring_int_norsz[15] w_ring_norsz[14] VGND VGND sky130_fd_pr__nfet_01v8 ad=0.0878 pd=0.92 as=0.169 ps=1.82 w=0.65 l=0.15
X564 dbg_ring_sig[2] a_17783_8751# VPWR VPWR sky130_fd_pr__pfet_01v8_hvt ad=0.14 pd=1.28 as=0.165 ps=1.33 w=1 l=0.15
X567 a_13809_12015# a_13275_12021# a_13714_12015# VPWR sky130_fd_pr__pfet_01v8_hvt ad=0.0767 pd=0.785 as=0.0683 ps=0.745 w=0.42 l=0.15
X568 VGND a_12723_7663# o_result_ring[5] VGND sky130_fd_pr__nfet_01v8 ad=0.0588 pd=0.7 as=0.0588 ps=0.7 w=0.42 l=0.15
X570 a_10310_591# a_10133_591# VGND VGND sky130_fd_pr__nfet_01v8 ad=0.169 pd=1.82 as=0.097 ps=0.975 w=0.65 l=0.15
X573 VGND a_15630_7231# a_15588_7119# VGND sky130_fd_pr__nfet_01v8 ad=0.121 pd=1.09 as=0.0696 ps=0.765 w=0.42 l=0.15
X575 VGND dbg_reset a_12355_12015# VGND sky130_fd_pr__nfet_01v8 ad=0.0683 pd=0.745 as=0.111 ps=1.37 w=0.42 l=0.15
X576 VPWR _07_ a_18015_12247# VPWR sky130_fd_pr__pfet_01v8_hvt ad=0.3 pd=2.6 as=0.135 ps=1.27 w=1 l=0.15
X581 dbg_ring_sig[9] a_19439_9295# VPWR VPWR sky130_fd_pr__pfet_01v8_hvt ad=0.14 pd=1.28 as=0.165 ps=1.33 w=1 l=0.15
X582 VGND net3 w_ring_norsz[13] VGND sky130_fd_pr__nfet_01v8 ad=0.0878 pd=0.92 as=0.169 ps=1.82 w=0.65 l=0.15
R5 VPWR stg01_16.HI sky130_fd_pr__res_generic_po w=0.48 l=0.045
X587 VPWR w_ring_int_norsz[6] a_12613_8751# VPWR sky130_fd_pr__pfet_01v8_hvt ad=0.26 pd=2.52 as=0.135 ps=1.27 w=1 l=0.15
X592 a_15076_11471# _01_ VPWR VPWR sky130_fd_pr__pfet_01v8_hvt ad=0.0651 pd=0.73 as=0.109 ps=1.36 w=0.42 l=0.15
X593 a_16677_10625# a_16459_10383# VGND VGND sky130_fd_pr__nfet_01v8 ad=0.0999 pd=0.985 as=0.135 ps=1.15 w=0.64 l=0.15
X594 VPWR net6 a_19347_9845# VPWR sky130_fd_pr__pfet_01v8_hvt ad=0.0864 pd=0.91 as=0.166 ps=1.8 w=0.64 l=0.15
X597 w_ring_buf[3] a_18703_8207# VPWR VPWR sky130_fd_pr__pfet_01v8_hvt ad=0.205 pd=2.1 as=0.115 ps=1.08 w=0.79 l=0.15
X601 VPWR a_10443_7637# a_10359_7663# VPWR sky130_fd_pr__pfet_01v8_hvt ad=0.111 pd=1.37 as=0.0882 ps=0.84 w=0.42 l=0.15
X603 a_17180_11721# r_ring_ctr[0] VGND VGND sky130_fd_pr__nfet_01v8 ad=0.0567 pd=0.69 as=0.109 ps=1.36 w=0.42 l=0.15
X604 VGND w_ring_buf[9] a_19439_9295# VGND sky130_fd_pr__nfet_01v8 ad=0.0703 pd=0.755 as=0.111 ps=1.37 w=0.42 l=0.15
X607 a_20046_8319# a_19878_8573# VPWR VPWR sky130_fd_pr__pfet_01v8_hvt ad=0.109 pd=1.08 as=0.179 ps=1.26 w=0.75 l=0.15
X608 VPWR net7 a_9411_8757# VPWR sky130_fd_pr__pfet_01v8_hvt ad=0.0864 pd=0.91 as=0.166 ps=1.8 w=0.64 l=0.15
X609 a_20046_8319# a_19878_8573# VGND VGND sky130_fd_pr__nfet_01v8 ad=0.0989 pd=0.995 as=0.121 ps=1.09 w=0.64 l=0.15
X610 _03_ net4 VGND VGND sky130_fd_pr__nfet_01v8 ad=0.0878 pd=0.92 as=0.169 ps=1.82 w=0.65 l=0.15
X612 o_result_ring[2] a_19991_9295# VPWR VPWR sky130_fd_pr__pfet_01v8_hvt ad=0.14 pd=1.28 as=0.165 ps=1.33 w=1 l=0.15
X615 VGND w_ring_buf[0] a_14655_11471# VGND sky130_fd_pr__nfet_01v8 ad=0.0567 pd=0.69 as=0.109 ps=1.36 w=0.42 l=0.15
X616 _06_ a_17180_11721# VGND VGND sky130_fd_pr__nfet_01v8 ad=0.169 pd=1.82 as=0.1 ps=0.985 w=0.65 l=0.15
X617 a_17659_11623# _06_ a_17833_11499# VGND sky130_fd_pr__nfet_01v8 ad=0.118 pd=1.4 as=0.0567 ps=0.69 w=0.42 l=0.15
X622 dbg_ring_ctr[1] a_19531_10927# VPWR VPWR sky130_fd_pr__pfet_01v8_hvt ad=0.14 pd=1.28 as=0.14 ps=1.28 w=1 l=0.15
X623 a_14944_10217# a_14545_9845# a_14818_9839# VGND sky130_fd_pr__nfet_01v8 ad=0.0696 pd=0.765 as=0.0621 ps=0.705 w=0.36 l=0.15
X624 a_11858_7637# a_11690_7663# VGND VGND sky130_fd_pr__nfet_01v8 ad=0.0989 pd=0.995 as=0.121 ps=1.09 w=0.64 l=0.15
X628 a_19057_12015# r_ring_ctr[2] VGND VGND sky130_fd_pr__nfet_01v8 ad=0.0813 pd=0.83 as=0.109 ps=1.36 w=0.42 l=0.15
X629 VPWR a_18763_11445# dbg_ring_ctr[2] VPWR sky130_fd_pr__pfet_01v8_hvt ad=0.165 pd=1.33 as=0.14 ps=1.28 w=1 l=0.15
X636 a_10851_10357# w_ring_buf[7] VPWR VPWR sky130_fd_pr__pfet_01v8_hvt ad=0.265 pd=2.53 as=0.165 ps=1.33 w=1 l=0.15
X637 a_18141_11471# r_ring_ctr[1] _07_ VGND sky130_fd_pr__nfet_01v8 ad=0.0878 pd=0.92 as=0.169 ps=1.82 w=0.65 l=0.15
X641 a_16109_10383# a_15943_10383# VGND VGND sky130_fd_pr__nfet_01v8 ad=0.109 pd=1.36 as=0.0567 ps=0.69 w=0.42 l=0.15
X643 VGND net6 a_18703_10383# VGND sky130_fd_pr__nfet_01v8 ad=0.0567 pd=0.69 as=0.109 ps=1.36 w=0.42 l=0.15
X646 dbg_ring_sig[8] a_14563_9295# VGND VGND sky130_fd_pr__nfet_01v8 ad=0.0588 pd=0.7 as=0.0588 ps=0.7 w=0.42 l=0.15
X649 a_15377_7119# w_ring_buf[12] VGND VGND sky130_fd_pr__nfet_01v8 ad=0.0813 pd=0.83 as=0.109 ps=1.36 w=0.42 l=0.15
X652 dbg_ring_sig[4] a_13735_6575# VPWR VPWR sky130_fd_pr__pfet_01v8_hvt ad=0.14 pd=1.28 as=0.165 ps=1.33 w=1 l=0.15
X654 o_result_ctr[1] a_20911_11471# VPWR VPWR sky130_fd_pr__pfet_01v8_hvt ad=0.14 pd=1.28 as=0.165 ps=1.33 w=1 l=0.15
X661 a_13070_10927# a_12631_10933# a_12985_10927# VGND sky130_fd_pr__nfet_01v8 ad=0.0621 pd=0.705 as=0.0813 ps=0.83 w=0.36 l=0.15
R6 VGND net8 sky130_fd_pr__res_generic_po w=0.48 l=0.045
X662 a_16567_10749# a_15943_10383# a_16459_10383# VPWR sky130_fd_pr__pfet_01v8_hvt ad=0.116 pd=0.97 as=0.0724 ps=0.765 w=0.42 l=0.15
X663 VPWR a_19735_11989# a_19651_12015# VPWR sky130_fd_pr__pfet_01v8_hvt ad=0.111 pd=1.37 as=0.0882 ps=0.84 w=0.42 l=0.15
X666 VPWR r_dly_store_ring[8] a_16127_9839# VPWR sky130_fd_pr__pfet_01v8_hvt ad=0.165 pd=1.33 as=0.265 ps=2.53 w=1 l=0.15
X672 VPWR a_12723_7663# o_result_ring[5] VPWR sky130_fd_pr__pfet_01v8_hvt ad=0.14 pd=1.28 as=0.14 ps=1.28 w=1 l=0.15
X673 VPWR w_ring_norsz[10] a_17415_8751# VPWR sky130_fd_pr__pfet_01v8_hvt ad=0.115 pd=1.08 as=0.205 ps=2.1 w=0.79 l=0.15
X676 VPWR r_dly_store_ctr[1] a_20911_11471# VPWR sky130_fd_pr__pfet_01v8_hvt ad=0.165 pd=1.33 as=0.265 ps=2.53 w=1 l=0.15
X678 a_15898_11837# a_14821_11471# a_15736_11471# VPWR sky130_fd_pr__pfet_01v8_hvt ad=0.0567 pd=0.69 as=0.0588 ps=0.7 w=0.42 l=0.15
X681 VPWR a_10379_9460# w_ring_buf[6] VPWR sky130_fd_pr__pfet_01v8_hvt ad=0.115 pd=1.08 as=0.205 ps=2.1 w=0.79 l=0.15