* PEX produced on Mon Mar 18 01:23:37 PM CET 2024 using /foss/tools/osic-multitool/iic-pex.sh with m=1 and s=1
* NGSPICE file created from tdc_ring.ext - technology: sky130A

.subckt tdc_ring dbg_delay_stop dbg_dly_sig[0] dbg_dly_sig[11] dbg_dly_sig[13] dbg_dly_sig[2]
+ dbg_dly_sig[4] dbg_dly_sig[5] dbg_dly_sig[6] dbg_dly_sig[7] dbg_dly_sig[8] dbg_dly_sig[9]
+ dbg_ring_ctr[0] dbg_ring_ctr[1] dbg_ring_ctr[2] i_start i_stop o_result_ctr[0] o_result_ctr[2]
+ o_result_ring[0] o_result_ring[10] o_result_ring[12] o_result_ring[13] o_result_ring[14]
+ o_result_ring[15] o_result_ring[2] o_result_ring[5] o_result_ring[8] o_result_ring[7]
+ o_result_ring[4] o_result_ring[1] dbg_dly_sig[10] dbg_dly_sig[15] o_result_ring[9]
+ o_result_ring[6] o_result_ring[11] o_result_ctr[1] o_result_ring[3] dbg_dly_sig[12]
+ dbg_dly_sig[14] dbg_dly_sig[1] dbg_dly_sig[3] dbg_start_pulse VPWR VGND
X0 o_result_ring[3] a_15023_8207# VGND VGND sky130_fd_pr__nfet_01v8 ad=0.0588 pd=0.7 as=0.0588 ps=0.7 w=0.42 l=0.15
X1 VPWR net104 net45 VPWR sky130_fd_pr__pfet_01v8_hvt ad=0.26 pd=2.52 as=0.135 ps=1.27 w=1 l=0.15
X2 clknet_1_0__leaf_net5 a_12333_8725# VGND VGND sky130_fd_pr__nfet_01v8 ad=0.0588 pd=0.7 as=0.0588 ps=0.7 w=0.42 l=0.15
X7 net106 net32 VPWR VPWR sky130_fd_pr__pfet_01v8_hvt ad=0.135 pd=1.27 as=0.26 ps=2.52 w=1 l=0.15
X8 net36 net187 VPWR VPWR sky130_fd_pr__pfet_01v8_hvt ad=0.135 pd=1.27 as=0.26 ps=2.52 w=1 l=0.15
X9 net50 net196 VPWR VPWR sky130_fd_pr__pfet_01v8_hvt ad=0.135 pd=1.27 as=0.26 ps=2.52 w=1 l=0.15
X10 r_dly_store_ring[9] a_17987_7387# VGND VGND sky130_fd_pr__nfet_01v8 ad=0.169 pd=1.82 as=0.0878 ps=0.92 w=0.65 l=0.15
X11 a_16197_7119# a_15207_7119# a_16071_7485# VGND sky130_fd_pr__nfet_01v8 ad=0.066 pd=0.745 as=0.0684 ps=0.74 w=0.36 l=0.15
X13 VGND clknet_1_1__leaf_net5 net19 VGND sky130_fd_pr__nfet_01v8 ad=0.169 pd=1.82 as=0.0878 ps=0.92 w=0.65 l=0.15
X16 r_dly_store_ring[2] a_10443_9813# VPWR VPWR sky130_fd_pr__pfet_01v8_hvt ad=0.26 pd=2.52 as=0.135 ps=1.27 w=1 l=0.15
X19 a_18179_10927# a_17397_10933# a_18095_10927# VPWR sky130_fd_pr__pfet_01v8_hvt ad=0.0882 pd=0.84 as=0.0567 ps=0.69 w=0.42 l=0.15
X23 a_13441_12021# a_13275_12021# VGND VGND sky130_fd_pr__nfet_01v8 ad=0.109 pd=1.36 as=0.0567 ps=0.69 w=0.42 l=0.15
X26 VPWR net37 net199 VPWR sky130_fd_pr__pfet_01v8_hvt ad=0.26 pd=2.52 as=0.135 ps=1.27 w=1 l=0.15
X28 a_14223_12015# a_13441_12021# a_14139_12015# VPWR sky130_fd_pr__pfet_01v8_hvt ad=0.0882 pd=0.84 as=0.0567 ps=0.69 w=0.42 l=0.15
X29 a_15285_11471# _01_ VGND VGND sky130_fd_pr__nfet_01v8 ad=0.0813 pd=0.83 as=0.109 ps=1.36 w=0.42 l=0.15
X30 VPWR net214 net126 VPWR sky130_fd_pr__pfet_01v8_hvt ad=0.26 pd=2.52 as=0.135 ps=1.27 w=1 l=0.15
X33 VGND a_16831_7923# dbg_dly_sig[9] VGND sky130_fd_pr__nfet_01v8 ad=0.0703 pd=0.755 as=0.0588 ps=0.7 w=0.42 l=0.15
X34 clknet_1_1__leaf_net5 a_17498_8751# VPWR VPWR sky130_fd_pr__pfet_01v8_hvt ad=0.14 pd=1.28 as=0.14 ps=1.28 w=1 l=0.15
X36 VGND a_17498_8751# clknet_1_1__leaf_net5 VGND sky130_fd_pr__nfet_01v8 ad=0.0588 pd=0.7 as=0.0588 ps=0.7 w=0.42 l=0.15
X38 net37 net151 VPWR VPWR sky130_fd_pr__pfet_01v8_hvt ad=0.135 pd=1.27 as=0.26 ps=2.52 w=1 l=0.15
X40 net191 net22 VPWR VPWR sky130_fd_pr__pfet_01v8_hvt ad=0.135 pd=1.27 as=0.26 ps=2.52 w=1 l=0.15
X42 VGND a_15483_10927# o_result_ring[0] VGND sky130_fd_pr__nfet_01v8 ad=0.0588 pd=0.7 as=0.0588 ps=0.7 w=0.42 l=0.15
X43 VPWR a_16854_9295# clknet_1_1__leaf_i_stop VPWR sky130_fd_pr__pfet_01v8_hvt ad=0.14 pd=1.28 as=0.14 ps=1.28 w=1 l=0.15
X44 VGND _05_ a_12999_12015# VGND sky130_fd_pr__nfet_01v8 ad=0.0754 pd=0.81 as=0.135 ps=1.56 w=0.52 l=0.15
X45 net91 net89 VGND VGND sky130_fd_pr__nfet_01v8 ad=0.0878 pd=0.92 as=0.169 ps=1.82 w=0.65 l=0.15
X48 _00_ a_12999_12015# VGND VGND sky130_fd_pr__nfet_01v8 ad=0.135 pd=1.56 as=0.0754 ps=0.81 w=0.52 l=0.15
X49 o_result_ring[2] a_10975_10383# VPWR VPWR sky130_fd_pr__pfet_01v8_hvt ad=0.14 pd=1.28 as=0.14 ps=1.28 w=1 l=0.15
X50 clknet_1_0__leaf_i_stop a_11689_9269# VPWR VPWR sky130_fd_pr__pfet_01v8_hvt ad=0.14 pd=1.28 as=0.14 ps=1.28 w=1 l=0.15
X53 VGND net206 net63 VGND sky130_fd_pr__nfet_01v8 ad=0.169 pd=1.82 as=0.0878 ps=0.92 w=0.65 l=0.15
X57 a_15097_11471# a_14931_11471# VPWR VPWR sky130_fd_pr__pfet_01v8_hvt ad=0.166 pd=1.8 as=0.0864 ps=0.91 w=0.64 l=0.15
X58 VPWR a_14922_9295# clknet_0_net5 VPWR sky130_fd_pr__pfet_01v8_hvt ad=0.265 pd=2.53 as=0.14 ps=1.28 w=1 l=0.15
X59 clknet_1_1__leaf_net5 a_17498_8751# VPWR VPWR sky130_fd_pr__pfet_01v8_hvt ad=0.14 pd=1.28 as=0.14 ps=1.28 w=1 l=0.15
X62 a_12333_8725# clknet_0_net5 VGND VGND sky130_fd_pr__nfet_01v8 ad=0.0588 pd=0.7 as=0.0588 ps=0.7 w=0.42 l=0.15
X63 a_13990_8573# a_13551_8207# a_13905_8207# VGND sky130_fd_pr__nfet_01v8 ad=0.0621 pd=0.705 as=0.0813 ps=0.83 w=0.36 l=0.15
X65 VGND net22 net189 VGND sky130_fd_pr__nfet_01v8 ad=0.169 pd=1.82 as=0.0878 ps=0.92 w=0.65 l=0.15
X66 VGND r_ring_ctr[0] a_13871_11445# VGND sky130_fd_pr__nfet_01v8 ad=0.109 pd=1.36 as=0.109 ps=1.36 w=0.42 l=0.15
X67 net49 net197 VGND VGND sky130_fd_pr__nfet_01v8 ad=0.0878 pd=0.92 as=0.169 ps=1.82 w=0.65 l=0.15
X71 VPWR clknet_1_1__leaf_net5 dbg_delay_stop VPWR sky130_fd_pr__pfet_01v8_hvt ad=0.26 pd=2.52 as=0.135 ps=1.27 w=1 l=0.15
X73 VGND a_11689_9269# clknet_1_0__leaf_i_stop VGND sky130_fd_pr__nfet_01v8 ad=0.0588 pd=0.7 as=0.0588 ps=0.7 w=0.42 l=0.15
X77 net175 net72 VGND VGND sky130_fd_pr__nfet_01v8 ad=0.0878 pd=0.92 as=0.169 ps=1.82 w=0.65 l=0.15
X78 a_7841_9071# net34 VGND VGND sky130_fd_pr__nfet_01v8 ad=0.0878 pd=0.92 as=0.169 ps=1.82 w=0.65 l=0.15
X79 net72 net123 VPWR VPWR sky130_fd_pr__pfet_01v8_hvt ad=0.135 pd=1.27 as=0.26 ps=2.52 w=1 l=0.15
X80 clknet_0_net5 a_14922_9295# VGND VGND sky130_fd_pr__nfet_01v8 ad=0.0588 pd=0.7 as=0.0588 ps=0.7 w=0.42 l=0.15
X81 VGND net97 net29 VGND sky130_fd_pr__nfet_01v8 ad=0.169 pd=1.82 as=0.0878 ps=0.92 w=0.65 l=0.15
X85 a_19775_9269# net75 VGND VGND sky130_fd_pr__nfet_01v8 ad=0.111 pd=1.37 as=0.0703 ps=0.755 w=0.42 l=0.15
X91 VPWR net63 net121 VPWR sky130_fd_pr__pfet_01v8_hvt ad=0.26 pd=2.52 as=0.135 ps=1.27 w=1 l=0.15
X93 VGND clknet_1_0__leaf_i_stop a_9227_8757# VGND sky130_fd_pr__nfet_01v8 ad=0.0567 pd=0.69 as=0.109 ps=1.36 w=0.42 l=0.15
X94 net61 net111 VGND VGND sky130_fd_pr__nfet_01v8 ad=0.0878 pd=0.92 as=0.169 ps=1.82 w=0.65 l=0.15
X98 VPWR a_9931_8181# dbg_dly_sig[5] VPWR sky130_fd_pr__pfet_01v8_hvt ad=0.14 pd=1.28 as=0.14 ps=1.28 w=1 l=0.15
X100 net163 net57 VPWR VPWR sky130_fd_pr__pfet_01v8_hvt ad=0.135 pd=1.27 as=0.26 ps=2.52 w=1 l=0.15
X101 VGND a_13551_9295# dbg_dly_sig[3] VGND sky130_fd_pr__nfet_01v8 ad=0.0588 pd=0.7 as=0.0588 ps=0.7 w=0.42 l=0.15
X102 VPWR net129 net136 VPWR sky130_fd_pr__pfet_01v8_hvt ad=0.26 pd=2.52 as=0.135 ps=1.27 w=1 l=0.15
X105 r_dly_store_ring[6] a_11731_7387# VPWR VPWR sky130_fd_pr__pfet_01v8_hvt ad=0.26 pd=2.52 as=0.135 ps=1.27 w=1 l=0.15
X106 a_14177_10933# a_14011_10933# VPWR VPWR sky130_fd_pr__pfet_01v8_hvt ad=0.166 pd=1.8 as=0.0864 ps=0.91 w=0.64 l=0.15
X107 o_result_ring[5] a_10515_8207# VGND VGND sky130_fd_pr__nfet_01v8 ad=0.0588 pd=0.7 as=0.0588 ps=0.7 w=0.42 l=0.15
X108 a_9379_8181# net35 VPWR VPWR sky130_fd_pr__pfet_01v8_hvt ad=0.265 pd=2.53 as=0.165 ps=1.33 w=1 l=0.15
X110 a_19237_7663# a_18703_7669# a_19142_7663# VPWR sky130_fd_pr__pfet_01v8_hvt ad=0.0767 pd=0.785 as=0.0683 ps=0.745 w=0.42 l=0.15
X114 net202 net158 VGND VGND sky130_fd_pr__nfet_01v8 ad=0.0878 pd=0.92 as=0.169 ps=1.82 w=0.65 l=0.15
X115 a_20153_8207# a_19163_8207# a_20027_8573# VGND sky130_fd_pr__nfet_01v8 ad=0.066 pd=0.745 as=0.0684 ps=0.74 w=0.36 l=0.15
X116 a_11689_7119# a_10699_7119# a_11563_7485# VGND sky130_fd_pr__nfet_01v8 ad=0.066 pd=0.745 as=0.0684 ps=0.74 w=0.36 l=0.15
X127 VPWR net57 net166 VPWR sky130_fd_pr__pfet_01v8_hvt ad=0.26 pd=2.52 as=0.135 ps=1.27 w=1 l=0.15
X128 net86 net171 VPWR VPWR sky130_fd_pr__pfet_01v8_hvt ad=0.135 pd=1.27 as=0.26 ps=2.52 w=1 l=0.15
X129 net7 clknet_1_1__leaf_net5 VGND VGND sky130_fd_pr__nfet_01v8 ad=0.0878 pd=0.92 as=0.169 ps=1.82 w=0.65 l=0.15
X131 net186 net183 VPWR VPWR sky130_fd_pr__pfet_01v8_hvt ad=0.135 pd=1.27 as=0.26 ps=2.52 w=1 l=0.15
X136 VGND a_10975_9839# dbg_dly_sig[2] VGND sky130_fd_pr__nfet_01v8 ad=0.122 pd=1.42 as=0.0588 ps=0.7 w=0.42 l=0.15
X137 clknet_0_net5 a_14922_9295# VPWR VPWR sky130_fd_pr__pfet_01v8_hvt ad=0.14 pd=1.28 as=0.14 ps=1.28 w=1 l=0.15
X138 VPWR clknet_0_net5 a_17498_8751# VPWR sky130_fd_pr__pfet_01v8_hvt ad=0.14 pd=1.28 as=0.14 ps=1.28 w=1 l=0.15
X142 VPWR net168 net170 VPWR sky130_fd_pr__pfet_01v8_hvt ad=0.26 pd=2.52 as=0.135 ps=1.27 w=1 l=0.15
X146 a_17930_11989# a_17762_12015# VPWR VPWR sky130_fd_pr__pfet_01v8_hvt ad=0.109 pd=1.08 as=0.179 ps=1.26 w=0.75 l=0.15
X147 VGND net99 net27 VGND sky130_fd_pr__nfet_01v8 ad=0.169 pd=1.82 as=0.0878 ps=0.92 w=0.65 l=0.15
X148 VPWR a_11689_9269# clknet_1_0__leaf_i_stop VPWR sky130_fd_pr__pfet_01v8_hvt ad=0.138 pd=1.27 as=0.14 ps=1.28 w=1 l=0.15
X150 net154 net106 VGND VGND sky130_fd_pr__nfet_01v8 ad=0.0878 pd=0.92 as=0.169 ps=1.82 w=0.65 l=0.15
X152 VGND a_16239_7387# a_16197_7119# VGND sky130_fd_pr__nfet_01v8 ad=0.109 pd=1.36 as=0.066 ps=0.745 w=0.42 l=0.15
X153 a_16942_12335# r_ring_ctr[2] a_16773_12015# VPWR sky130_fd_pr__pfet_01v8_hvt ad=0.26 pd=2.52 as=0.138 ps=1.27 w=1 l=0.15
X155 VGND net22 net192 VGND sky130_fd_pr__nfet_01v8 ad=0.169 pd=1.82 as=0.0878 ps=0.92 w=0.65 l=0.15
X156 VPWR net90 net98 VPWR sky130_fd_pr__pfet_01v8_hvt ad=0.26 pd=2.52 as=0.135 ps=1.27 w=1 l=0.15
X160 net94 net89 VPWR VPWR sky130_fd_pr__pfet_01v8_hvt ad=0.135 pd=1.27 as=0.26 ps=2.52 w=1 l=0.15
X161 VPWR net63 net119 VPWR sky130_fd_pr__pfet_01v8_hvt ad=0.26 pd=2.52 as=0.135 ps=1.27 w=1 l=0.15
X162 VGND a_14922_9295# clknet_0_net5 VGND sky130_fd_pr__nfet_01v8 ad=0.0588 pd=0.7 as=0.0588 ps=0.7 w=0.42 l=0.15
X164 net118 net207 VGND VGND sky130_fd_pr__nfet_01v8 ad=0.0878 pd=0.92 as=0.169 ps=1.82 w=0.65 l=0.15
X165 net197 net37 VGND VGND sky130_fd_pr__nfet_01v8 ad=0.0878 pd=0.92 as=0.169 ps=1.82 w=0.65 l=0.15
X170 dbg_dly_sig[13] a_20327_9269# VGND VGND sky130_fd_pr__nfet_01v8 ad=0.0588 pd=0.7 as=0.122 ps=1.42 w=0.42 l=0.15
X173 net123 net63 VGND VGND sky130_fd_pr__nfet_01v8 ad=0.0878 pd=0.92 as=0.169 ps=1.82 w=0.65 l=0.15
X174 net117 net47 VPWR VPWR sky130_fd_pr__pfet_01v8_hvt ad=0.135 pd=1.27 as=0.26 ps=2.52 w=1 l=0.15
X175 VPWR clknet_1_1__leaf_i_stop a_18979_10933# VPWR sky130_fd_pr__pfet_01v8_hvt ad=0.0864 pd=0.91 as=0.166 ps=1.8 w=0.64 l=0.15
X176 VGND r_dly_store_ring[14] a_19163_9295# VGND sky130_fd_pr__nfet_01v8 ad=0.0703 pd=0.755 as=0.111 ps=1.37 w=0.42 l=0.15
X179 net170 net168 VGND VGND sky130_fd_pr__nfet_01v8 ad=0.0878 pd=0.92 as=0.169 ps=1.82 w=0.65 l=0.15
X180 VPWR a_16831_7923# dbg_dly_sig[9] VPWR sky130_fd_pr__pfet_01v8_hvt ad=0.14 pd=1.28 as=0.14 ps=1.28 w=1 l=0.15
X181 VPWR net84 net88 VPWR sky130_fd_pr__pfet_01v8_hvt ad=0.26 pd=2.52 as=0.135 ps=1.27 w=1 l=0.15
X182 VPWR net37 net201 VPWR sky130_fd_pr__pfet_01v8_hvt ad=0.26 pd=2.52 as=0.135 ps=1.27 w=1 l=0.15
X183 VGND clknet_1_0__leaf_net5 net14 VGND sky130_fd_pr__nfet_01v8 ad=0.169 pd=1.82 as=0.0878 ps=0.92 w=0.65 l=0.15
X184 a_14415_8573# a_13717_8207# a_14158_8319# VGND sky130_fd_pr__nfet_01v8 ad=0.0684 pd=0.74 as=0.0989 ps=0.995 w=0.36 l=0.15
X185 net127 net77 VPWR VPWR sky130_fd_pr__pfet_01v8_hvt ad=0.135 pd=1.27 as=0.26 ps=2.52 w=1 l=0.15
X186 VGND net114 net162 VGND sky130_fd_pr__nfet_01v8 ad=0.169 pd=1.82 as=0.0878 ps=0.92 w=0.65 l=0.15
X187 VPWR a_15023_8207# o_result_ring[3] VPWR sky130_fd_pr__pfet_01v8_hvt ad=0.3 pd=2.6 as=0.14 ps=1.28 w=1 l=0.15
X188 a_17593_11471# r_ring_ctr[1] a_17497_11471# VGND sky130_fd_pr__nfet_01v8 ad=0.0878 pd=0.92 as=0.107 ps=0.98 w=0.65 l=0.15
X189 r_dly_store_ctr[0] a_18263_10901# VGND VGND sky130_fd_pr__nfet_01v8 ad=0.169 pd=1.82 as=0.0878 ps=0.92 w=0.65 l=0.15
X191 VPWR net27 net147 VPWR sky130_fd_pr__pfet_01v8_hvt ad=0.26 pd=2.52 as=0.135 ps=1.27 w=1 l=0.15
X194 VPWR a_10018_9813# a_9945_9839# VPWR sky130_fd_pr__pfet_01v8_hvt ad=0.179 pd=1.26 as=0.0767 ps=0.785 w=0.42 l=0.15
X197 dbg_ring_ctr[1] a_19039_12275# VPWR VPWR sky130_fd_pr__pfet_01v8_hvt ad=0.14 pd=1.28 as=0.14 ps=1.28 w=1 l=0.15
X198 VGND a_10275_9839# a_10443_9813# VGND sky130_fd_pr__nfet_01v8 ad=0.0878 pd=0.92 as=0.169 ps=1.82 w=0.65 l=0.15
X200 VGND net174 net83 VGND sky130_fd_pr__nfet_01v8 ad=0.169 pd=1.82 as=0.0878 ps=0.92 w=0.65 l=0.15
X201 VPWR a_14278_8751# clknet_0_i_stop VPWR sky130_fd_pr__pfet_01v8_hvt ad=0.14 pd=1.28 as=0.14 ps=1.28 w=1 l=0.15
X203 clknet_1_0__leaf_net5 a_12333_8725# VGND VGND sky130_fd_pr__nfet_01v8 ad=0.0588 pd=0.7 as=0.111 ps=1.37 w=0.42 l=0.15
X204 a_16180_8725# clknet_1_1__leaf_i_stop VPWR VPWR sky130_fd_pr__pfet_01v8_hvt ad=0.166 pd=1.8 as=0.149 ps=1.33 w=0.64 l=0.15
X208 VGND a_12502_10495# a_12460_10383# VGND sky130_fd_pr__nfet_01v8 ad=0.121 pd=1.09 as=0.0696 ps=0.765 w=0.42 l=0.15
X210 VGND net181 a_14655_9839# VGND sky130_fd_pr__nfet_01v8 ad=0.0703 pd=0.755 as=0.111 ps=1.37 w=0.42 l=0.15
X212 a_14158_8319# a_13990_8573# VPWR VPWR sky130_fd_pr__pfet_01v8_hvt ad=0.109 pd=1.08 as=0.179 ps=1.26 w=0.75 l=0.15
X213 net88 net84 VGND VGND sky130_fd_pr__nfet_01v8 ad=0.0878 pd=0.92 as=0.169 ps=1.82 w=0.65 l=0.15
X214 VGND r_dly_store_ring[6] a_12171_7663# VGND sky130_fd_pr__nfet_01v8 ad=0.0703 pd=0.755 as=0.111 ps=1.37 w=0.42 l=0.15
X215 dbg_ring_ctr[1] a_19039_12275# VGND VGND sky130_fd_pr__nfet_01v8 ad=0.0588 pd=0.7 as=0.0588 ps=0.7 w=0.42 l=0.15
X216 VGND net22 net193 VGND sky130_fd_pr__nfet_01v8 ad=0.169 pd=1.82 as=0.0878 ps=0.92 w=0.65 l=0.15
X217 a_17037_10159# net15 net128 VGND sky130_fd_pr__nfet_01v8 ad=0.0878 pd=0.92 as=0.169 ps=1.82 w=0.65 l=0.15
X219 dbg_dly_sig[5] a_9931_8181# VPWR VPWR sky130_fd_pr__pfet_01v8_hvt ad=0.14 pd=1.28 as=0.3 ps=2.6 w=1 l=0.15
X220 VPWR a_10091_7663# a_10259_7637# VPWR sky130_fd_pr__pfet_01v8_hvt ad=0.135 pd=1.27 as=0.27 ps=2.54 w=1 l=0.15
X221 VGND net47 net116 VGND sky130_fd_pr__nfet_01v8 ad=0.169 pd=1.82 as=0.0878 ps=0.92 w=0.65 l=0.15
X222 o_result_ctr[1] a_20451_10927# VGND VGND sky130_fd_pr__nfet_01v8 ad=0.0588 pd=0.7 as=0.0703 ps=0.755 w=0.42 l=0.15
X223 w_ring_ctr_clk a_12447_12015# VGND VGND sky130_fd_pr__nfet_01v8 ad=0.135 pd=1.56 as=0.0754 ps=0.81 w=0.52 l=0.15
X225 net109 net32 VGND VGND sky130_fd_pr__nfet_01v8 ad=0.0878 pd=0.92 as=0.169 ps=1.82 w=0.65 l=0.15
X227 a_14875_10927# a_14177_10933# a_14618_10901# VGND sky130_fd_pr__nfet_01v8 ad=0.0684 pd=0.74 as=0.0989 ps=0.995 w=0.36 l=0.15
X228 net30 net96 VPWR VPWR sky130_fd_pr__pfet_01v8_hvt ad=0.135 pd=1.27 as=0.26 ps=2.52 w=1 l=0.15
X229 net88 net179 VPWR VPWR sky130_fd_pr__pfet_01v8_hvt ad=0.135 pd=1.27 as=0.26 ps=2.52 w=1 l=0.15
X233 a_15646_7485# a_15373_7119# a_15561_7119# VPWR sky130_fd_pr__pfet_01v8_hvt ad=0.0683 pd=0.745 as=0.0578 ps=0.695 w=0.42 l=0.15
X234 VGND w_ring_ctr_clk a_13275_12021# VGND sky130_fd_pr__nfet_01v8 ad=0.0567 pd=0.69 as=0.109 ps=1.36 w=0.42 l=0.15
X235 VGND net72 net176 VGND sky130_fd_pr__nfet_01v8 ad=0.169 pd=1.82 as=0.0878 ps=0.92 w=0.65 l=0.15
X237 VGND net37 net196 VGND sky130_fd_pr__nfet_01v8 ad=0.169 pd=1.82 as=0.0878 ps=0.92 w=0.65 l=0.15
X240 o_result_ring[8] a_16587_6575# VPWR VPWR sky130_fd_pr__pfet_01v8_hvt ad=0.14 pd=1.28 as=0.14 ps=1.28 w=1 l=0.15
X241 net139 net130 VGND VGND sky130_fd_pr__nfet_01v8 ad=0.0878 pd=0.92 as=0.169 ps=1.82 w=0.65 l=0.15
X244 VGND a_14278_8751# clknet_0_i_stop VGND sky130_fd_pr__nfet_01v8 ad=0.0588 pd=0.7 as=0.0588 ps=0.7 w=0.42 l=0.15
X246 dbg_dly_sig[15] a_14655_9839# VPWR VPWR sky130_fd_pr__pfet_01v8_hvt ad=0.14 pd=1.28 as=0.165 ps=1.33 w=1 l=0.15
X247 VPWR a_12333_8725# clknet_1_0__leaf_net5 VPWR sky130_fd_pr__pfet_01v8_hvt ad=0.14 pd=1.28 as=0.14 ps=1.28 w=1 l=0.15
X249 VPWR a_16854_9295# clknet_1_1__leaf_i_stop VPWR sky130_fd_pr__pfet_01v8_hvt ad=0.14 pd=1.28 as=0.14 ps=1.28 w=1 l=0.15
X250 a_17394_7485# a_16955_7119# a_17309_7119# VGND sky130_fd_pr__nfet_01v8 ad=0.0621 pd=0.705 as=0.0813 ps=0.83 w=0.36 l=0.15
X251 VPWR a_12691_7093# dbg_dly_sig[7] VPWR sky130_fd_pr__pfet_01v8_hvt ad=0.14 pd=1.28 as=0.14 ps=1.28 w=1 l=0.15
X258 VGND net52 net209 VGND sky130_fd_pr__nfet_01v8 ad=0.169 pd=1.82 as=0.0878 ps=0.92 w=0.65 l=0.15
X259 VGND net116 net118 VGND sky130_fd_pr__nfet_01v8 ad=0.169 pd=1.82 as=0.0878 ps=0.92 w=0.65 l=0.15
X260 net141 net130 VPWR VPWR sky130_fd_pr__pfet_01v8_hvt ad=0.135 pd=1.27 as=0.26 ps=2.52 w=1 l=0.15
X266 VPWR net111 net61 VPWR sky130_fd_pr__pfet_01v8_hvt ad=0.26 pd=2.52 as=0.135 ps=1.27 w=1 l=0.15
X267 VGND a_11731_7387# a_11689_7119# VGND sky130_fd_pr__nfet_01v8 ad=0.109 pd=1.36 as=0.066 ps=0.745 w=0.42 l=0.15
X268 net103 net32 VGND VGND sky130_fd_pr__nfet_01v8 ad=0.0878 pd=0.92 as=0.169 ps=1.82 w=0.65 l=0.15
X270 net26 net139 VGND VGND sky130_fd_pr__nfet_01v8 ad=0.0878 pd=0.92 as=0.169 ps=1.82 w=0.65 l=0.15
X271 VGND net68 net212 VGND sky130_fd_pr__nfet_01v8 ad=0.169 pd=1.82 as=0.0878 ps=0.92 w=0.65 l=0.15
X272 r_dly_store_ring[4] a_10259_8725# VGND VGND sky130_fd_pr__nfet_01v8 ad=0.169 pd=1.82 as=0.0878 ps=0.92 w=0.65 l=0.15
X273 o_result_ring[3] a_15023_8207# VPWR VPWR sky130_fd_pr__pfet_01v8_hvt ad=0.14 pd=1.28 as=0.165 ps=1.33 w=1 l=0.15
X274 clknet_1_1__leaf_i_stop a_16854_9295# VGND VGND sky130_fd_pr__nfet_01v8 ad=0.0588 pd=0.7 as=0.0588 ps=0.7 w=0.42 l=0.15
X275 VGND a_20119_8751# a_20287_8725# VGND sky130_fd_pr__nfet_01v8 ad=0.0878 pd=0.92 as=0.169 ps=1.82 w=0.65 l=0.15
X276 net83 net174 VPWR VPWR sky130_fd_pr__pfet_01v8_hvt ad=0.135 pd=1.27 as=0.26 ps=2.52 w=1 l=0.15
X279 net41 net147 VPWR VPWR sky130_fd_pr__pfet_01v8_hvt ad=0.135 pd=1.27 as=0.26 ps=2.52 w=1 l=0.15
X280 VPWR net195 net51 VPWR sky130_fd_pr__pfet_01v8_hvt ad=0.26 pd=2.52 as=0.135 ps=1.27 w=1 l=0.15
X281 net71 net163 VPWR VPWR sky130_fd_pr__pfet_01v8_hvt ad=0.135 pd=1.27 as=0.26 ps=2.52 w=1 l=0.15
X282 net8 clknet_1_0__leaf_net5 VGND VGND sky130_fd_pr__nfet_01v8 ad=0.0878 pd=0.92 as=0.169 ps=1.82 w=0.65 l=0.15
X283 net100 net90 VGND VGND sky130_fd_pr__nfet_01v8 ad=0.0878 pd=0.92 as=0.169 ps=1.82 w=0.65 l=0.15
X284 clknet_0_i_stop a_14278_8751# VPWR VPWR sky130_fd_pr__pfet_01v8_hvt ad=0.14 pd=1.28 as=0.138 ps=1.27 w=1 l=0.15
X285 a_13905_8207# net31 VGND VGND sky130_fd_pr__nfet_01v8 ad=0.0813 pd=0.83 as=0.109 ps=1.36 w=0.42 l=0.15
X286 VPWR a_16071_7485# a_16239_7387# VPWR sky130_fd_pr__pfet_01v8_hvt ad=0.135 pd=1.27 as=0.27 ps=2.54 w=1 l=0.15
X287 a_18211_7923# net65 VGND VGND sky130_fd_pr__nfet_01v8 ad=0.111 pd=1.37 as=0.0703 ps=0.755 w=0.42 l=0.15
X288 VGND net37 net200 VGND sky130_fd_pr__nfet_01v8 ad=0.169 pd=1.82 as=0.0878 ps=0.92 w=0.65 l=0.15
X295 a_18221_11305# a_17231_10933# a_18095_10927# VGND sky130_fd_pr__nfet_01v8 ad=0.066 pd=0.745 as=0.0684 ps=0.74 w=0.36 l=0.15
X296 VGND clknet_0_i_stop a_11689_9269# VGND sky130_fd_pr__nfet_01v8 ad=0.111 pd=1.37 as=0.0588 ps=0.7 w=0.42 l=0.15
X297 net122 net63 VGND VGND sky130_fd_pr__nfet_01v8 ad=0.0878 pd=0.92 as=0.169 ps=1.82 w=0.65 l=0.15
X300 a_16854_9295# clknet_0_i_stop VGND VGND sky130_fd_pr__nfet_01v8 ad=0.0588 pd=0.7 as=0.111 ps=1.37 w=0.42 l=0.15
X302 a_10091_7663# a_9227_7669# a_9834_7637# VPWR sky130_fd_pr__pfet_01v8_hvt ad=0.0567 pd=0.69 as=0.109 ps=1.08 w=0.42 l=0.15
X304 net217 net68 VPWR VPWR sky130_fd_pr__pfet_01v8_hvt ad=0.135 pd=1.27 as=0.26 ps=2.52 w=1 l=0.15
X305 VPWR a_10515_8207# o_result_ring[5] VPWR sky130_fd_pr__pfet_01v8_hvt ad=0.3 pd=2.6 as=0.14 ps=1.28 w=1 l=0.15
X309 VGND net140 net25 VGND sky130_fd_pr__nfet_01v8 ad=0.169 pd=1.82 as=0.0878 ps=0.92 w=0.65 l=0.15
X310 dbg_dly_sig[0] a_16187_11187# VPWR VPWR sky130_fd_pr__pfet_01v8_hvt ad=0.14 pd=1.28 as=0.14 ps=1.28 w=1 l=0.15
X312 VGND net32 net104 VGND sky130_fd_pr__nfet_01v8 ad=0.169 pd=1.82 as=0.0878 ps=0.92 w=0.65 l=0.15
X314 w_dly_strt_ana_[4] w_dly_strt_ana_[3] VGND VGND sky130_fd_pr__nfet_01v8 ad=0.169 pd=1.82 as=0.169 ps=1.82 w=0.65 l=0.15
X317 a_19789_9839# a_19255_9845# a_19694_9839# VPWR sky130_fd_pr__pfet_01v8_hvt ad=0.0767 pd=0.785 as=0.0683 ps=0.745 w=0.42 l=0.15
X319 a_17520_7119# a_17121_7119# a_17394_7485# VGND sky130_fd_pr__nfet_01v8 ad=0.0696 pd=0.765 as=0.0621 ps=0.705 w=0.36 l=0.15
X320 a_10045_9545# dbg_start_pulse net185 VPWR sky130_fd_pr__pfet_01v8_hvt ad=0.105 pd=1.21 as=0.26 ps=2.52 w=1 l=0.15
X323 a_15370_11837# a_14931_11471# a_15285_11471# VGND sky130_fd_pr__nfet_01v8 ad=0.0621 pd=0.705 as=0.0813 ps=0.83 w=0.36 l=0.15
X324 dbg_dly_sig[2] a_10975_9839# VGND VGND sky130_fd_pr__nfet_01v8 ad=0.0588 pd=0.7 as=0.0703 ps=0.755 w=0.42 l=0.15
X325 a_16942_12335# r_ring_ctr[0] a_16856_12335# VGND sky130_fd_pr__nfet_01v8 ad=0.0894 pd=0.925 as=0.091 ps=0.93 w=0.65 l=0.15
X326 dbg_dly_sig[14] a_15207_9839# VPWR VPWR sky130_fd_pr__pfet_01v8_hvt ad=0.14 pd=1.28 as=0.14 ps=1.28 w=1 l=0.15
X327 net110 net108 VGND VGND sky130_fd_pr__nfet_01v8 ad=0.0878 pd=0.92 as=0.169 ps=1.82 w=0.65 l=0.15
X329 VPWR net122 net170 VPWR sky130_fd_pr__pfet_01v8_hvt ad=0.26 pd=2.52 as=0.135 ps=1.27 w=1 l=0.15
X330 a_19770_8319# a_19602_8573# VPWR VPWR sky130_fd_pr__pfet_01v8_hvt ad=0.109 pd=1.08 as=0.179 ps=1.26 w=0.75 l=0.15
X332 net136 net129 VPWR VPWR sky130_fd_pr__pfet_01v8_hvt ad=0.135 pd=1.27 as=0.26 ps=2.52 w=1 l=0.15
X334 VPWR a_18703_10383# o_result_ctr[0] VPWR sky130_fd_pr__pfet_01v8_hvt ad=0.14 pd=1.28 as=0.14 ps=1.28 w=1 l=0.15
X337 VGND a_15023_8207# o_result_ring[3] VGND sky130_fd_pr__nfet_01v8 ad=0.122 pd=1.42 as=0.0588 ps=0.7 w=0.42 l=0.15
X338 VGND a_12333_8725# clknet_1_0__leaf_net5 VGND sky130_fd_pr__nfet_01v8 ad=0.0578 pd=0.695 as=0.0588 ps=0.7 w=0.42 l=0.15
X342 a_14005_5807# net49 VGND VGND sky130_fd_pr__nfet_01v8 ad=0.0878 pd=0.92 as=0.169 ps=1.82 w=0.65 l=0.15
X343 a_12691_7093# net50 VPWR VPWR sky130_fd_pr__pfet_01v8_hvt ad=0.265 pd=2.53 as=0.165 ps=1.33 w=1 l=0.15
X345 VGND a_18555_9839# a_18723_9813# VGND sky130_fd_pr__nfet_01v8 ad=0.0878 pd=0.92 as=0.169 ps=1.82 w=0.65 l=0.15
X348 VPWR net52 net204 VPWR sky130_fd_pr__pfet_01v8_hvt ad=0.26 pd=2.52 as=0.135 ps=1.27 w=1 l=0.15
X349 VPWR net207 net118 VPWR sky130_fd_pr__pfet_01v8_hvt ad=0.26 pd=2.52 as=0.135 ps=1.27 w=1 l=0.15
X350 net85 net172 VPWR VPWR sky130_fd_pr__pfet_01v8_hvt ad=0.135 pd=1.27 as=0.26 ps=2.52 w=1 l=0.15
X351 VPWR a_15814_7231# a_15741_7485# VPWR sky130_fd_pr__pfet_01v8_hvt ad=0.179 pd=1.26 as=0.0767 ps=0.785 w=0.42 l=0.15
X357 VGND net192 net194 VGND sky130_fd_pr__nfet_01v8 ad=0.169 pd=1.82 as=0.0878 ps=0.92 w=0.65 l=0.15
X360 a_18045_9839# net86 VPWR VPWR sky130_fd_pr__pfet_01v8_hvt ad=0.0578 pd=0.695 as=0.109 ps=1.36 w=0.42 l=0.15
X361 VPWR a_17498_8751# clknet_1_1__leaf_net5 VPWR sky130_fd_pr__pfet_01v8_hvt ad=0.14 pd=1.28 as=0.14 ps=1.28 w=1 l=0.15
X363 net148 net27 VPWR VPWR sky130_fd_pr__pfet_01v8_hvt ad=0.135 pd=1.27 as=0.26 ps=2.52 w=1 l=0.15
X367 dbg_dly_sig[11] a_18119_8181# VGND VGND sky130_fd_pr__nfet_01v8 ad=0.0588 pd=0.7 as=0.122 ps=1.42 w=0.42 l=0.15
X368 dbg_start_pulse a_11955_11187# VPWR VPWR sky130_fd_pr__pfet_01v8_hvt ad=0.14 pd=1.28 as=0.3 ps=2.6 w=1 l=0.15
X369 r_dly_store_ring[15] a_16883_10651# VGND VGND sky130_fd_pr__nfet_01v8 ad=0.169 pd=1.82 as=0.0878 ps=0.92 w=0.65 l=0.15
X371 a_17773_6031# net17 net217 VGND sky130_fd_pr__nfet_01v8 ad=0.0878 pd=0.92 as=0.169 ps=1.82 w=0.65 l=0.15
X373 o_result_ctr[2] a_20635_11471# VGND VGND sky130_fd_pr__nfet_01v8 ad=0.0588 pd=0.7 as=0.0588 ps=0.7 w=0.42 l=0.15
X374 a_19789_8751# a_19255_8757# a_19694_8751# VPWR sky130_fd_pr__pfet_01v8_hvt ad=0.0767 pd=0.785 as=0.0683 ps=0.745 w=0.42 l=0.15
X375 VGND net57 net165 VGND sky130_fd_pr__nfet_01v8 ad=0.169 pd=1.82 as=0.0878 ps=0.92 w=0.65 l=0.15
X377 net219 net176 VPWR VPWR sky130_fd_pr__pfet_01v8_hvt ad=0.135 pd=1.27 as=0.26 ps=2.52 w=1 l=0.15
X379 VPWR a_17498_8751# clknet_1_1__leaf_net5 VPWR sky130_fd_pr__pfet_01v8_hvt ad=0.265 pd=2.53 as=0.14 ps=1.28 w=1 l=0.15
X382 clknet_1_1__leaf_net5 a_17498_8751# VGND VGND sky130_fd_pr__nfet_01v8 ad=0.0588 pd=0.7 as=0.0588 ps=0.7 w=0.42 l=0.15
X383 net207 net52 VGND VGND sky130_fd_pr__nfet_01v8 ad=0.0878 pd=0.92 as=0.169 ps=1.82 w=0.65 l=0.15
X385 VPWR net84 net89 VPWR sky130_fd_pr__pfet_01v8_hvt ad=0.26 pd=2.52 as=0.135 ps=1.27 w=1 l=0.15
X386 clknet_1_1__leaf_i_stop a_16854_9295# VPWR VPWR sky130_fd_pr__pfet_01v8_hvt ad=0.14 pd=1.28 as=0.14 ps=1.28 w=1 l=0.15
X389 a_11153_11247# net91 VGND VGND sky130_fd_pr__nfet_01v8 ad=0.0878 pd=0.92 as=0.169 ps=1.82 w=0.65 l=0.15
X390 a_19862_9813# a_19694_9839# VGND VGND sky130_fd_pr__nfet_01v8 ad=0.0989 pd=0.995 as=0.121 ps=1.09 w=0.64 l=0.15
X392 a_11689_9269# clknet_0_i_stop VGND VGND sky130_fd_pr__nfet_01v8 ad=0.0588 pd=0.7 as=0.0588 ps=0.7 w=0.42 l=0.15
X396 VPWR a_11689_9269# clknet_1_0__leaf_i_stop VPWR sky130_fd_pr__pfet_01v8_hvt ad=0.14 pd=1.28 as=0.14 ps=1.28 w=1 l=0.15
X397 r_dly_store_ring[7] a_13663_6549# VPWR VPWR sky130_fd_pr__pfet_01v8_hvt ad=0.26 pd=2.52 as=0.135 ps=1.27 w=1 l=0.15
X399 VPWR net22 net193 VPWR sky130_fd_pr__pfet_01v8_hvt ad=0.26 pd=2.52 as=0.135 ps=1.27 w=1 l=0.15
X400 o_result_ring[5] a_10515_8207# VPWR VPWR sky130_fd_pr__pfet_01v8_hvt ad=0.14 pd=1.28 as=0.165 ps=1.33 w=1 l=0.15
X403 VPWR clknet_1_1__leaf_i_stop a_17231_10933# VPWR sky130_fd_pr__pfet_01v8_hvt ad=0.0864 pd=0.91 as=0.166 ps=1.8 w=0.64 l=0.15
X405 VPWR a_20635_11471# o_result_ctr[2] VPWR sky130_fd_pr__pfet_01v8_hvt ad=0.3 pd=2.6 as=0.14 ps=1.28 w=1 l=0.15
X407 a_15741_7485# a_15207_7119# a_15646_7485# VPWR sky130_fd_pr__pfet_01v8_hvt ad=0.0767 pd=0.785 as=0.0683 ps=0.745 w=0.42 l=0.15
X408 net65 net204 VPWR VPWR sky130_fd_pr__pfet_01v8_hvt ad=0.135 pd=1.27 as=0.26 ps=2.52 w=1 l=0.15
X409 VGND net95 net31 VGND sky130_fd_pr__nfet_01v8 ad=0.169 pd=1.82 as=0.0878 ps=0.92 w=0.65 l=0.15
X410 net188 net22 VPWR VPWR sky130_fd_pr__pfet_01v8_hvt ad=0.135 pd=1.27 as=0.26 ps=2.52 w=1 l=0.15
X414 VPWR a_20027_8573# a_20195_8475# VPWR sky130_fd_pr__pfet_01v8_hvt ad=0.135 pd=1.27 as=0.27 ps=2.54 w=1 l=0.15
X418 r_dly_store_ring[1] a_12927_10651# VGND VGND sky130_fd_pr__nfet_01v8 ad=0.169 pd=1.82 as=0.0878 ps=0.92 w=0.65 l=0.15
X419 VPWR net63 net125 VPWR sky130_fd_pr__pfet_01v8_hvt ad=0.26 pd=2.52 as=0.135 ps=1.27 w=1 l=0.15
X421 clknet_1_0__leaf_i_stop a_11689_9269# VGND VGND sky130_fd_pr__nfet_01v8 ad=0.0588 pd=0.7 as=0.0588 ps=0.7 w=0.42 l=0.15
X423 dbg_dly_sig[10] a_18211_7923# VPWR VPWR sky130_fd_pr__pfet_01v8_hvt ad=0.14 pd=1.28 as=0.3 ps=2.6 w=1 l=0.15
X424 dbg_ring_ctr[1] a_19039_12275# VPWR VPWR sky130_fd_pr__pfet_01v8_hvt ad=0.14 pd=1.28 as=0.3 ps=2.6 w=1 l=0.15
X425 net210 net167 VGND VGND sky130_fd_pr__nfet_01v8 ad=0.0878 pd=0.92 as=0.169 ps=1.82 w=0.65 l=0.15
X426 o_result_ring[3] a_15023_8207# VGND VGND sky130_fd_pr__nfet_01v8 ad=0.0588 pd=0.7 as=0.0703 ps=0.755 w=0.42 l=0.15
X428 clknet_1_0__leaf_net5 a_12333_8725# VGND VGND sky130_fd_pr__nfet_01v8 ad=0.0588 pd=0.7 as=0.0588 ps=0.7 w=0.42 l=0.15
X429 net16 clknet_1_1__leaf_net5 VPWR VPWR sky130_fd_pr__pfet_01v8_hvt ad=0.135 pd=1.27 as=0.26 ps=2.52 w=1 l=0.15
X431 a_9834_7637# a_9666_7663# VGND VGND sky130_fd_pr__nfet_01v8 ad=0.0989 pd=0.995 as=0.121 ps=1.09 w=0.64 l=0.15
X432 a_19586_10901# a_19418_10927# VGND VGND sky130_fd_pr__nfet_01v8 ad=0.0989 pd=0.995 as=0.121 ps=1.09 w=0.64 l=0.15
X434 _85_.X a_15628_8181# VGND VGND sky130_fd_pr__nfet_01v8 ad=0.0878 pd=0.92 as=0.172 ps=1.83 w=0.65 l=0.15
X438 net213 net68 VPWR VPWR sky130_fd_pr__pfet_01v8_hvt ad=0.135 pd=1.27 as=0.26 ps=2.52 w=1 l=0.15
X439 dbg_dly_sig[5] a_9931_8181# VPWR VPWR sky130_fd_pr__pfet_01v8_hvt ad=0.14 pd=1.28 as=0.14 ps=1.28 w=1 l=0.15
X440 VGND net44 a_11977_6895# VGND sky130_fd_pr__nfet_01v8 ad=0.169 pd=1.82 as=0.0878 ps=0.92 w=0.65 l=0.15
X441 VPWR net129 net130 VPWR sky130_fd_pr__pfet_01v8_hvt ad=0.26 pd=2.52 as=0.135 ps=1.27 w=1 l=0.15
X443 dbg_dly_sig[3] a_13551_9295# VGND VGND sky130_fd_pr__nfet_01v8 ad=0.0588 pd=0.7 as=0.0588 ps=0.7 w=0.42 l=0.15
X444 net194 net192 VPWR VPWR sky130_fd_pr__pfet_01v8_hvt ad=0.135 pd=1.27 as=0.26 ps=2.52 w=1 l=0.15
X446 o_result_ring[1] a_13551_10383# VPWR VPWR sky130_fd_pr__pfet_01v8_hvt ad=0.14 pd=1.28 as=0.14 ps=1.28 w=1 l=0.15
X447 VPWR clknet_1_1__leaf_i_stop a_19255_8757# VPWR sky130_fd_pr__pfet_01v8_hvt ad=0.0864 pd=0.91 as=0.166 ps=1.8 w=0.64 l=0.15
X448 a_13714_12015# a_13275_12021# a_13629_12015# VGND sky130_fd_pr__nfet_01v8 ad=0.0621 pd=0.705 as=0.0813 ps=0.83 w=0.36 l=0.15
X450 VGND r_dly_store_ring[8] a_16587_6575# VGND sky130_fd_pr__nfet_01v8 ad=0.0703 pd=0.755 as=0.111 ps=1.37 w=0.42 l=0.15
X451 VGND a_19310_7637# a_19268_8041# VGND sky130_fd_pr__nfet_01v8 ad=0.121 pd=1.09 as=0.0696 ps=0.765 w=0.42 l=0.15
X452 VPWR net113 net59 VPWR sky130_fd_pr__pfet_01v8_hvt ad=0.26 pd=2.52 as=0.135 ps=1.27 w=1 l=0.15
X454 VGND a_16071_7485# a_16239_7387# VGND sky130_fd_pr__nfet_01v8 ad=0.0878 pd=0.92 as=0.169 ps=1.82 w=0.65 l=0.15
X455 VGND a_10515_8207# o_result_ring[5] VGND sky130_fd_pr__nfet_01v8 ad=0.122 pd=1.42 as=0.0588 ps=0.7 w=0.42 l=0.15
X459 a_12334_10749# a_12061_10383# a_12249_10383# VPWR sky130_fd_pr__pfet_01v8_hvt ad=0.0683 pd=0.745 as=0.0578 ps=0.695 w=0.42 l=0.15
X460 VPWR clknet_1_0__leaf_net5 net13 VPWR sky130_fd_pr__pfet_01v8_hvt ad=0.26 pd=2.52 as=0.135 ps=1.27 w=1 l=0.15
X462 VPWR net32 net103 VPWR sky130_fd_pr__pfet_01v8_hvt ad=0.26 pd=2.52 as=0.135 ps=1.27 w=1 l=0.15
X464 VGND net100 net102 VGND sky130_fd_pr__nfet_01v8 ad=0.169 pd=1.82 as=0.0878 ps=0.92 w=0.65 l=0.15
X466 a_14365_10927# net134 VGND VGND sky130_fd_pr__nfet_01v8 ad=0.0813 pd=0.83 as=0.109 ps=1.36 w=0.42 l=0.15
X467 net55 net156 VPWR VPWR sky130_fd_pr__pfet_01v8_hvt ad=0.135 pd=1.27 as=0.26 ps=2.52 w=1 l=0.15
X468 net196 net37 VPWR VPWR sky130_fd_pr__pfet_01v8_hvt ad=0.135 pd=1.27 as=0.26 ps=2.52 w=1 l=0.15
X469 VPWR a_18355_11989# a_18271_12015# VPWR sky130_fd_pr__pfet_01v8_hvt ad=0.111 pd=1.37 as=0.0882 ps=0.84 w=0.42 l=0.15
X470 _86_.X a_12907_10935# VGND VGND sky130_fd_pr__nfet_01v8 ad=0.0878 pd=0.92 as=0.097 ps=0.975 w=0.65 l=0.15
X472 net35 net188 VGND VGND sky130_fd_pr__nfet_01v8 ad=0.0878 pd=0.92 as=0.169 ps=1.82 w=0.65 l=0.15
X475 VGND net27 net149 VGND sky130_fd_pr__nfet_01v8 ad=0.169 pd=1.82 as=0.0878 ps=0.92 w=0.65 l=0.15
X478 VPWR clknet_0_i_stop a_16854_9295# VPWR sky130_fd_pr__pfet_01v8_hvt ad=0.14 pd=1.28 as=0.14 ps=1.28 w=1 l=0.15
X480 VPWR net130 net144 VPWR sky130_fd_pr__pfet_01v8_hvt ad=0.26 pd=2.52 as=0.135 ps=1.27 w=1 l=0.15