* PEX produced on Fri Mar 29 11:41:37 PM CET 2024 using /foss/tools/osic-multitool/iic-pex.sh with m=1 and s=1
* NGSPICE file created from tt_um_hpretl_tt06_tdc_v2.ext - technology: sky130A

.subckt tt_um_hpretl_tt06_tdc_v2 clk ena rst_n ui_in[3] ui_in[5] ui_in[6] ui_in[7]
+ uio_in[0] uio_in[1] uio_in[2] uio_in[3] uio_in[4] uio_in[5] uio_in[6] uio_in[7]
+ uio_oe[7] uio_out[3] uo_out[0] uo_out[2] uo_out[3] uo_out[4] uo_out[5] uo_out[6]
+ uo_out[7] ui_in[0] ui_in[2] uio_oe[0] ui_in[4] uio_out[2] uo_out[1] uio_out[0] uio_oe[5]
+ uio_oe[4] uio_out[7] uio_out[1] uio_out[6] uio_oe[1] uio_oe[6] uio_out[5] uio_oe[2]
+ uio_oe[3] uio_out[4] ui_in[1] VPWR VGND
X0 VGND a_7902_8725# a_7860_9129# VGND sky130_fd_pr__nfet_01v8 ad=0.121 pd=1.09 as=0.0696 ps=0.765 w=0.42 l=0.15
X1 a_12150_10749# a_11877_10383# a_12065_10383# VPWR sky130_fd_pr__pfet_01v8_hvt ad=0.0683 pd=0.745 as=0.0578 ps=0.695 w=0.42 l=0.15
X3 VGND _078_ _079_ VGND sky130_fd_pr__nfet_01v8 ad=0.101 pd=0.96 as=0.172 ps=1.83 w=0.65 l=0.15
X4 _150_ a_9167_14763# VPWR VPWR sky130_fd_pr__pfet_01v8_hvt ad=0.475 pd=2.95 as=0.167 ps=1.39 w=1 l=0.15
X6 a_17751_3829# a_17576_3855# a_17930_3855# VGND sky130_fd_pr__nfet_01v8 ad=0.109 pd=1.36 as=0.064 ps=0.725 w=0.42 l=0.15
X7 a_26969_9839# tdc1.w_ring_buf[10] VGND VGND sky130_fd_pr__nfet_01v8 ad=0.0813 pd=0.83 as=0.109 ps=1.36 w=0.42 l=0.15
X10 VGND a_3439_14191# _003_ VGND sky130_fd_pr__nfet_01v8 ad=0.208 pd=1.94 as=0.25 ps=1.42 w=0.65 l=0.15
X11 tdc1.r_dly_store_ring[21] a_15871_7387# VGND VGND sky130_fd_pr__nfet_01v8 ad=0.169 pd=1.82 as=0.0878 ps=0.92 w=0.65 l=0.15
X12 a_9577_10933# a_9411_10933# VGND VGND sky130_fd_pr__nfet_01v8 ad=0.109 pd=1.36 as=0.0567 ps=0.69 w=0.42 l=0.15
X13 a_14421_15823# a_14377_16065# a_14255_15823# VGND sky130_fd_pr__nfet_01v8 ad=0.0441 pd=0.63 as=0.14 ps=1.1 w=0.42 l=0.15
X14 a_16477_15823# a_16311_15823# VPWR VPWR sky130_fd_pr__pfet_01v8_hvt ad=0.166 pd=1.8 as=0.0864 ps=0.91 w=0.64 l=0.15
X15 a_9008_15279# _148_ a_8543_15253# VPWR sky130_fd_pr__pfet_01v8_hvt ad=0.105 pd=1.21 as=0.165 ps=1.33 w=1 l=0.15
X16 a_23834_14191# a_23395_14197# a_23749_14191# VGND sky130_fd_pr__nfet_01v8 ad=0.0621 pd=0.705 as=0.0813 ps=0.83 w=0.36 l=0.15
X18 VPWR net32 a_21647_13647# VPWR sky130_fd_pr__pfet_01v8_hvt ad=0.0864 pd=0.91 as=0.166 ps=1.8 w=0.64 l=0.15
X19 a_12813_3311# _175_ a_12731_3311# VPWR sky130_fd_pr__pfet_01v8_hvt ad=0.135 pd=1.27 as=0.26 ps=2.52 w=1 l=0.15
X20 VPWR a_7223_9813# a_7139_9839# VPWR sky130_fd_pr__pfet_01v8_hvt ad=0.111 pd=1.37 as=0.0882 ps=0.84 w=0.42 l=0.15
X22 VPWR a_2932_14165# net27 VPWR sky130_fd_pr__pfet_01v8_hvt ad=0.149 pd=1.33 as=0.135 ps=1.27 w=1 l=0.15
X23 a_29035_7663# a_28253_7669# a_28951_7663# VPWR sky130_fd_pr__pfet_01v8_hvt ad=0.0882 pd=0.84 as=0.0567 ps=0.69 w=0.42 l=0.15
X25 a_15703_7485# a_15005_7119# a_15446_7231# VGND sky130_fd_pr__nfet_01v8 ad=0.0684 pd=0.74 as=0.0989 ps=0.995 w=0.36 l=0.15
X26 VPWR a_17895_5461# a_17811_5487# VPWR sky130_fd_pr__pfet_01v8_hvt ad=0.111 pd=1.37 as=0.0882 ps=0.84 w=0.42 l=0.15
X27 VGND a_9447_5309# a_9615_5211# VGND sky130_fd_pr__nfet_01v8 ad=0.0878 pd=0.92 as=0.169 ps=1.82 w=0.65 l=0.15
R0 tdc1.g_ring3[25].stg01_70.HI VPWR sky130_fd_pr__res_generic_po w=0.48 l=0.045
X28 a_27065_6575# net40 tdc1.w_ring_int_norsz[12] VPWR sky130_fd_pr__pfet_01v8_hvt ad=0.105 pd=1.21 as=0.26 ps=2.52 w=1 l=0.15
X30 VGND tdc0.w_ring_buf[0] a_18059_16375# VGND sky130_fd_pr__nfet_01v8 ad=0.097 pd=0.975 as=0.109 ps=1.36 w=0.42 l=0.15
X31 a_6357_12559# a_6191_12559# VPWR VPWR sky130_fd_pr__pfet_01v8_hvt ad=0.166 pd=1.8 as=0.0864 ps=0.91 w=0.64 l=0.15
X33 VGND net26 a_3247_8207# VGND sky130_fd_pr__nfet_01v8 ad=0.0567 pd=0.69 as=0.109 ps=1.36 w=0.42 l=0.15
X34 a_4595_6005# a_4420_6031# a_4774_6031# VGND sky130_fd_pr__nfet_01v8 ad=0.109 pd=1.36 as=0.064 ps=0.725 w=0.42 l=0.15
X36 a_11115_4007# tdc1.r_ring_ctr[6] a_11349_3855# VGND sky130_fd_pr__nfet_01v8 ad=0.109 pd=1.36 as=0.0441 ps=0.63 w=0.42 l=0.15
X37 VPWR a_19805_3285# a_19695_3311# VPWR sky130_fd_pr__pfet_01v8_hvt ad=0.0703 pd=0.755 as=0.116 ps=0.97 w=0.42 l=0.15
X38 a_21997_5493# a_21831_5493# VPWR VPWR sky130_fd_pr__pfet_01v8_hvt ad=0.166 pd=1.8 as=0.0864 ps=0.91 w=0.64 l=0.15
X40 a_19237_6281# tdc1.w_ring_norsz[13] a_19153_6281# VPWR sky130_fd_pr__pfet_01v8_hvt ad=0.135 pd=1.27 as=0.135 ps=1.27 w=1 l=0.15
X42 a_21361_7369# _075_ a_21445_7369# VPWR sky130_fd_pr__pfet_01v8_hvt ad=0.26 pd=2.52 as=0.135 ps=1.27 w=1 l=0.15
X43 VGND a_28951_9839# a_29119_9813# VGND sky130_fd_pr__nfet_01v8 ad=0.0878 pd=0.92 as=0.169 ps=1.82 w=0.65 l=0.15
R1 net51 VGND sky130_fd_pr__res_generic_po w=0.48 l=0.045
X44 a_26479_11159# a_26575_11159# VGND VGND sky130_fd_pr__nfet_01v8 ad=0.169 pd=1.82 as=0.0878 ps=0.92 w=0.65 l=0.15
X45 VPWR a_17475_13621# a_17482_13921# VPWR sky130_fd_pr__pfet_01v8_hvt ad=0.0864 pd=0.91 as=0.166 ps=1.8 w=0.64 l=0.15
X46 a_28331_12233# net36 VPWR VPWR sky130_fd_pr__pfet_01v8_hvt ad=0.166 pd=1.8 as=0.0864 ps=0.91 w=0.64 l=0.15
X47 a_24420_12393# a_24021_12021# a_24294_12015# VGND sky130_fd_pr__nfet_01v8 ad=0.0696 pd=0.765 as=0.0621 ps=0.705 w=0.36 l=0.15
X48 VPWR _072_ a_11233_11721# VPWR sky130_fd_pr__pfet_01v8_hvt ad=0.157 pd=1.32 as=0.165 ps=1.33 w=1 l=0.15
X49 VPWR tdc1.r_ring_ctr[4] a_12139_4007# VPWR sky130_fd_pr__pfet_01v8_hvt ad=0.118 pd=1.4 as=0.0567 ps=0.69 w=0.42 l=0.15
X50 VPWR a_14342_10901# a_14269_10927# VPWR sky130_fd_pr__pfet_01v8_hvt ad=0.179 pd=1.26 as=0.0767 ps=0.785 w=0.42 l=0.15
X51 VGND _095_ a_25973_9301# VGND sky130_fd_pr__nfet_01v8 ad=0.102 pd=0.99 as=0.0567 ps=0.69 w=0.42 l=0.15
X52 VGND tdc0.w_ring_norsz[24] a_9135_10927# VGND sky130_fd_pr__nfet_01v8 ad=0.0754 pd=0.81 as=0.135 ps=1.56 w=0.52 l=0.15
X54 VPWR a_19692_4777# a_19867_4703# VPWR sky130_fd_pr__pfet_01v8_hvt ad=0.113 pd=1.38 as=0.0567 ps=0.69 w=0.42 l=0.15
X56 VGND _138_ a_10946_9295# VGND sky130_fd_pr__nfet_01v8 ad=0.169 pd=1.82 as=0.0878 ps=0.92 w=0.65 l=0.15
X57 a_22163_14735# a_21647_14735# a_22068_14735# VGND sky130_fd_pr__nfet_01v8 ad=0.0594 pd=0.69 as=0.066 ps=0.745 w=0.36 l=0.15
X59 a_17100_4765# _017_ VGND VGND sky130_fd_pr__nfet_01v8 ad=0.066 pd=0.745 as=0.221 ps=1.89 w=0.42 l=0.15
X60 VPWR net30 a_11619_9295# VPWR sky130_fd_pr__pfet_01v8_hvt ad=0.0864 pd=0.91 as=0.166 ps=1.8 w=0.64 l=0.15
X61 VPWR tdc1.r_ring_ctr[12] a_6373_5193# VPWR sky130_fd_pr__pfet_01v8_hvt ad=0.135 pd=1.27 as=0.135 ps=1.27 w=1 l=0.15
X62 a_22649_4399# _167_ _025_ VPWR sky130_fd_pr__pfet_01v8_hvt ad=0.105 pd=1.21 as=0.26 ps=2.52 w=1 l=0.15
X64 net15 a_9103_4659# VGND VGND sky130_fd_pr__nfet_01v8 ad=0.0588 pd=0.7 as=0.122 ps=1.42 w=0.42 l=0.15
X65 VGND a_22903_14709# a_22837_14735# VGND sky130_fd_pr__nfet_01v8 ad=0.125 pd=1.01 as=0.0669 ps=0.75 w=0.42 l=0.15
X66 a_20533_6575# _077_ a_20617_6575# VPWR sky130_fd_pr__pfet_01v8_hvt ad=0.26 pd=2.52 as=0.135 ps=1.27 w=1 l=0.15
X67 VPWR a_5951_7485# a_6119_7387# VPWR sky130_fd_pr__pfet_01v8_hvt ad=0.135 pd=1.27 as=0.27 ps=2.54 w=1 l=0.15
R2 VGND uio_out[7] sky130_fd_pr__res_generic_po w=0.48 l=0.045
X68 VGND net7 a_10975_2767# VGND sky130_fd_pr__nfet_01v8 ad=0.0567 pd=0.69 as=0.109 ps=1.36 w=0.42 l=0.15
X70 _066_ a_15335_8181# a_15283_8457# VPWR sky130_fd_pr__pfet_01v8_hvt ad=0.135 pd=1.27 as=0.26 ps=2.52 w=1 l=0.15
X73 net11 a_5271_12559# VGND VGND sky130_fd_pr__nfet_01v8 ad=0.135 pd=1.56 as=0.0754 ps=0.81 w=0.52 l=0.15
X74 VGND tdc0.w_dly_stop[1] a_2603_13647# VGND sky130_fd_pr__nfet_01v8 ad=0.0754 pd=0.81 as=0.135 ps=1.56 w=0.52 l=0.15
X75 VPWR a_12594_7637# a_12521_7663# VPWR sky130_fd_pr__pfet_01v8_hvt ad=0.179 pd=1.26 as=0.0767 ps=0.785 w=0.42 l=0.15
X78 a_8270_7637# a_8102_7663# VPWR VPWR sky130_fd_pr__pfet_01v8_hvt ad=0.109 pd=1.08 as=0.179 ps=1.26 w=0.75 l=0.15
R3 VGND net61 sky130_fd_pr__res_generic_po w=0.48 l=0.045
X80 a_17221_6575# net67 tdc1.w_ring_int_norsz[22] VPWR sky130_fd_pr__pfet_01v8_hvt ad=0.105 pd=1.21 as=0.26 ps=2.52 w=1 l=0.15
X81 a_9785_15645# _143_ a_9713_15645# VGND sky130_fd_pr__nfet_01v8 ad=0.0441 pd=0.63 as=0.0441 ps=0.63 w=0.42 l=0.15
X82 a_11693_7663# tdc1.w_ring_norsz[23] a_11609_7663# VPWR sky130_fd_pr__pfet_01v8_hvt ad=0.135 pd=1.27 as=0.135 ps=1.27 w=1 l=0.15
X83 VPWR a_24151_9813# a_24067_9839# VPWR sky130_fd_pr__pfet_01v8_hvt ad=0.111 pd=1.37 as=0.0882 ps=0.84 w=0.42 l=0.15
X84 VPWR a_20810_13621# a_20739_13647# VPWR sky130_fd_pr__pfet_01v8_hvt ad=0.179 pd=1.26 as=0.109 ps=1.08 w=0.75 l=0.15
X85 VPWR net5 a_16771_7663# VPWR sky130_fd_pr__pfet_01v8_hvt ad=0.165 pd=1.33 as=0.265 ps=2.53 w=1 l=0.15
X86 tdc1.w_ring_norsz[25] net18 VGND VGND sky130_fd_pr__nfet_01v8 ad=0.169 pd=1.82 as=0.0878 ps=0.92 w=0.65 l=0.15
X87 a_30101_8751# _069_ VPWR VPWR sky130_fd_pr__pfet_01v8_hvt ad=0.16 pd=1.32 as=0.155 ps=1.31 w=1 l=0.15
X88 VGND a_8159_8751# a_8327_8725# VGND sky130_fd_pr__nfet_01v8 ad=0.0878 pd=0.92 as=0.169 ps=1.82 w=0.65 l=0.15
X89 a_19345_4373# a_19127_4777# VGND VGND sky130_fd_pr__nfet_01v8 ad=0.0999 pd=0.985 as=0.135 ps=1.15 w=0.64 l=0.15
X90 VPWR net9 a_11619_14735# VPWR sky130_fd_pr__pfet_01v8_hvt ad=0.0864 pd=0.91 as=0.166 ps=1.8 w=0.64 l=0.15
X91 VPWR a_25071_6549# a_24987_6575# VPWR sky130_fd_pr__pfet_01v8_hvt ad=0.111 pd=1.37 as=0.0882 ps=0.84 w=0.42 l=0.15
X92 a_24294_15101# a_23855_14735# a_24209_14735# VGND sky130_fd_pr__nfet_01v8 ad=0.0621 pd=0.705 as=0.0813 ps=0.83 w=0.36 l=0.15
X93 tdc1.w_dly_stop[1] a_26615_4943# VGND VGND sky130_fd_pr__nfet_01v8 ad=0.135 pd=1.56 as=0.0754 ps=0.81 w=0.52 l=0.15
X94 VGND tdc0.w_ring_norsz[16] a_4627_11471# VGND sky130_fd_pr__nfet_01v8 ad=0.0754 pd=0.81 as=0.135 ps=1.56 w=0.52 l=0.15
X95 VPWR net10 a_21831_15285# VPWR sky130_fd_pr__pfet_01v8_hvt ad=0.0864 pd=0.91 as=0.166 ps=1.8 w=0.64 l=0.15
X96 net21 a_3484_13077# VPWR VPWR sky130_fd_pr__pfet_01v8_hvt ad=0.135 pd=1.27 as=0.265 ps=2.53 w=1 l=0.15
X97 a_23565_13103# tdc0.w_ring_buf[19] VPWR VPWR sky130_fd_pr__pfet_01v8_hvt ad=0.0578 pd=0.695 as=0.109 ps=1.36 w=0.42 l=0.15
X98 a_11809_15279# _146_ VPWR VPWR sky130_fd_pr__pfet_01v8_hvt ad=0.105 pd=1.21 as=0.26 ps=2.52 w=1 l=0.15
X99 a_14008_9545# _193_ VPWR VPWR sky130_fd_pr__pfet_01v8_hvt ad=0.285 pd=2.57 as=0.135 ps=1.27 w=1 l=0.15
X100 a_12729_11721# tdc0.w_ring_norsz[24] VPWR VPWR sky130_fd_pr__pfet_01v8_hvt ad=0.105 pd=1.21 as=0.26 ps=2.52 w=1 l=0.15
X102 tdc1.w_ring_norsz[5] tdc1.w_ring_norsz[21] VGND VGND sky130_fd_pr__nfet_01v8 ad=0.0878 pd=0.92 as=0.0878 ps=0.92 w=0.65 l=0.15
X103 a_10291_4373# _179_ VPWR VPWR sky130_fd_pr__pfet_01v8_hvt ad=0.0588 pd=0.7 as=0.312 ps=1.68 w=0.42 l=0.15
X105 VPWR a_29035_9447# _096_ VPWR sky130_fd_pr__pfet_01v8_hvt ad=0.155 pd=1.31 as=0.26 ps=2.52 w=1 l=0.15
X106 tdc1.r_ring_ctr[10] a_17935_4703# VGND VGND sky130_fd_pr__nfet_01v8 ad=0.169 pd=1.82 as=0.209 ps=2.02 w=0.65 l=0.15
X107 VPWR a_20152_3689# a_20327_3615# VPWR sky130_fd_pr__pfet_01v8_hvt ad=0.113 pd=1.38 as=0.0567 ps=0.69 w=0.42 l=0.15
X108 a_11792_12015# _130_ a_11623_12335# VGND sky130_fd_pr__nfet_01v8 ad=0.091 pd=0.93 as=0.117 ps=1.01 w=0.65 l=0.15
X110 VGND net39 tdc0.w_ring_int_norsz[9] VGND sky130_fd_pr__nfet_01v8 ad=0.169 pd=1.82 as=0.0878 ps=0.92 w=0.65 l=0.15
R4 VPWR tdc1.g_ring3[23].stg01_68.HI sky130_fd_pr__res_generic_po w=0.48 l=0.045
X111 VPWR _066_ a_11987_9839# VPWR sky130_fd_pr__pfet_01v8_hvt ad=0.165 pd=1.33 as=0.265 ps=2.53 w=1 l=0.15
X112 VGND net13 a_7571_7119# VGND sky130_fd_pr__nfet_01v8 ad=0.0754 pd=0.81 as=0.135 ps=1.56 w=0.52 l=0.15
X113 VGND net28 a_6191_9845# VGND sky130_fd_pr__nfet_01v8 ad=0.0567 pd=0.69 as=0.109 ps=1.36 w=0.42 l=0.15
X114 VGND _196_ _049_ VGND sky130_fd_pr__nfet_01v8 ad=0.169 pd=1.82 as=0.0878 ps=0.92 w=0.65 l=0.15
X115 a_25511_10927# _083_ a_25689_11247# VGND sky130_fd_pr__nfet_01v8 ad=0.169 pd=1.82 as=0.0683 ps=0.86 w=0.65 l=0.15
X117 a_17417_11721# tdc0.w_ring_int_norsz[9] VPWR VPWR sky130_fd_pr__pfet_01v8_hvt ad=0.135 pd=1.27 as=0.26 ps=2.52 w=1 l=0.15
X118 VPWR a_7364_14569# a_7539_14495# VPWR sky130_fd_pr__pfet_01v8_hvt ad=0.113 pd=1.38 as=0.0567 ps=0.69 w=0.42 l=0.15
X119 a_5560_13647# a_5161_13647# a_5434_14013# VGND sky130_fd_pr__nfet_01v8 ad=0.0696 pd=0.765 as=0.0621 ps=0.705 w=0.36 l=0.15
X120 a_19142_10749# a_18703_10383# a_19057_10383# VGND sky130_fd_pr__nfet_01v8 ad=0.0621 pd=0.705 as=0.0813 ps=0.83 w=0.36 l=0.15
X121 a_7274_6397# a_6835_6031# a_7189_6031# VGND sky130_fd_pr__nfet_01v8 ad=0.0621 pd=0.705 as=0.0813 ps=0.83 w=0.36 l=0.15
X122 tdc0.w_ring_norsz[20] net24 VGND VGND sky130_fd_pr__nfet_01v8 ad=0.169 pd=1.82 as=0.0878 ps=0.92 w=0.65 l=0.15
X125 a_3115_9813# net28 VPWR VPWR sky130_fd_pr__pfet_01v8_hvt ad=0.265 pd=2.53 as=0.162 ps=1.33 w=1 l=0.15
X126 tdc0.r_dly_store_ring[16] a_5935_11739# VPWR VPWR sky130_fd_pr__pfet_01v8_hvt ad=0.26 pd=2.52 as=0.135 ps=1.27 w=1 l=0.15
X127 VGND a_22254_13759# a_22212_13647# VGND sky130_fd_pr__nfet_01v8 ad=0.121 pd=1.09 as=0.0696 ps=0.765 w=0.42 l=0.15
X128 a_22833_11721# net22 tdc0.w_ring_norsz[3] VPWR sky130_fd_pr__pfet_01v8_hvt ad=0.135 pd=1.27 as=0.26 ps=2.52 w=1 l=0.15
X131 tdc0.r_dly_store_ctr[9] a_19735_13915# VPWR VPWR sky130_fd_pr__pfet_01v8_hvt ad=0.26 pd=2.52 as=0.135 ps=1.27 w=1 l=0.15
X132 tdc1.w_ring_norsz[28] net18 a_26149_6575# VPWR sky130_fd_pr__pfet_01v8_hvt ad=0.26 pd=2.52 as=0.135 ps=1.27 w=1 l=0.15
X133 VGND tdc1.w_ring_int_norsz[20] tdc1.w_ring_norsz[20] VGND sky130_fd_pr__nfet_01v8 ad=0.169 pd=1.82 as=0.0878 ps=0.92 w=0.65 l=0.15
X134 a_17746_15823# _041_ VGND VGND sky130_fd_pr__nfet_01v8 ad=0.064 pd=0.725 as=0.125 ps=1.01 w=0.42 l=0.15
X136 VPWR net32 a_19623_12559# VPWR sky130_fd_pr__pfet_01v8_hvt ad=0.0864 pd=0.91 as=0.166 ps=1.8 w=0.64 l=0.15
X137 a_29035_9447# tdc1.r_dly_store_ring[10] a_29181_9545# VPWR sky130_fd_pr__pfet_01v8_hvt ad=0.26 pd=2.52 as=0.135 ps=1.27 w=1 l=0.15
X138 VPWR tdc0.w_ring_int_norsz[5] a_16385_10927# VPWR sky130_fd_pr__pfet_01v8_hvt ad=0.26 pd=2.52 as=0.135 ps=1.27 w=1 l=0.15
X139 uo_out[4] a_21912_6575# VGND VGND sky130_fd_pr__nfet_01v8 ad=0.091 pd=0.93 as=0.172 ps=1.83 w=0.65 l=0.15
X140 a_26513_13423# tdc0.r_dly_store_ring[10] VGND VGND sky130_fd_pr__nfet_01v8 ad=0.0747 pd=0.88 as=0.169 ps=1.82 w=0.65 l=0.15
X141 VGND _070_ _071_ VGND sky130_fd_pr__nfet_01v8 ad=0.0878 pd=0.92 as=0.0878 ps=0.92 w=0.65 l=0.15
X142 VGND net16 tdc1.w_ring_norsz[7] VGND sky130_fd_pr__nfet_01v8 ad=0.0878 pd=0.92 as=0.169 ps=1.82 w=0.65 l=0.15
X143 a_7783_6397# a_7001_6031# a_7699_6397# VPWR sky130_fd_pr__pfet_01v8_hvt ad=0.0882 pd=0.84 as=0.0567 ps=0.69 w=0.42 l=0.15
X144 VPWR a_17746_8319# a_17673_8573# VPWR sky130_fd_pr__pfet_01v8_hvt ad=0.179 pd=1.26 as=0.0767 ps=0.785 w=0.42 l=0.15
X145 VGND net36 a_29007_8207# VGND sky130_fd_pr__nfet_01v8 ad=0.0567 pd=0.69 as=0.109 ps=1.36 w=0.42 l=0.15
X148 _023_ a_20735_3017# a_20985_3017# VPWR sky130_fd_pr__pfet_01v8_hvt ad=0.3 pd=2.6 as=0.26 ps=2.52 w=1 l=0.15
X149 a_12521_7663# a_11987_7669# a_12426_7663# VPWR sky130_fd_pr__pfet_01v8_hvt ad=0.0767 pd=0.785 as=0.0683 ps=0.745 w=0.42 l=0.15
X150 tdc0.w_ring_buf[25] a_17875_10927# VPWR VPWR sky130_fd_pr__pfet_01v8_hvt ad=0.205 pd=2.1 as=0.115 ps=1.08 w=0.79 l=0.15
X151 a_2894_10927# a_2768_11043# a_2490_11059# VGND sky130_fd_pr__nfet_01v8 ad=0.0999 pd=0.985 as=0.0711 ps=0.755 w=0.36 l=0.15
X152 tdc0.w_ring_int_norsz[7] net38 VGND VGND sky130_fd_pr__nfet_01v8 ad=0.0878 pd=0.92 as=0.169 ps=1.82 w=0.65 l=0.15
X153 a_27491_5108# tdc1.w_dly_stop[2] VGND VGND sky130_fd_pr__nfet_01v8 ad=0.135 pd=1.56 as=0.0754 ps=0.81 w=0.52 l=0.15
X156 tdc1.r_dly_store_ctr[4] a_25899_4123# VPWR VPWR sky130_fd_pr__pfet_01v8_hvt ad=0.26 pd=2.52 as=0.135 ps=1.27 w=1 l=0.15
X157 a_15256_10535# _116_ VGND VGND sky130_fd_pr__nfet_01v8 ad=0.109 pd=1.36 as=0.0567 ps=0.69 w=0.42 l=0.15
X160 tdc0.w_ring_int_norsz[17] net44 a_4725_12015# VPWR sky130_fd_pr__pfet_01v8_hvt ad=0.26 pd=2.52 as=0.105 ps=1.21 w=1 l=0.15
X161 VGND net30 a_10055_4943# VGND sky130_fd_pr__nfet_01v8 ad=0.0567 pd=0.69 as=0.109 ps=1.36 w=0.42 l=0.15
X162 VPWR net7 a_10975_2767# VPWR sky130_fd_pr__pfet_01v8_hvt ad=0.0864 pd=0.91 as=0.166 ps=1.8 w=0.64 l=0.15
X164 a_15539_13647# a_15023_13647# a_15444_13647# VGND sky130_fd_pr__nfet_01v8 ad=0.0594 pd=0.69 as=0.066 ps=0.745 w=0.36 l=0.15
X165 a_14431_4373# tdc1.r_ring_ctr[9] VPWR VPWR sky130_fd_pr__pfet_01v8_hvt ad=0.0735 pd=0.77 as=0.0777 ps=0.79 w=0.42 l=0.15
X166 VGND net28 a_8399_7119# VGND sky130_fd_pr__nfet_01v8 ad=0.0567 pd=0.69 as=0.109 ps=1.36 w=0.42 l=0.15
X167 VGND a_11792_12015# uo_out[6] VGND sky130_fd_pr__nfet_01v8 ad=0.091 pd=0.93 as=0.091 ps=0.93 w=0.65 l=0.15
X169 VGND _044_ a_4577_14735# VGND sky130_fd_pr__nfet_01v8 ad=0.135 pd=1.15 as=0.0441 ps=0.63 w=0.42 l=0.15
X170 VGND net33 a_21739_13109# VGND sky130_fd_pr__nfet_01v8 ad=0.0567 pd=0.69 as=0.109 ps=1.36 w=0.42 l=0.15
X171 VGND a_8235_13077# a_8193_13481# VGND sky130_fd_pr__nfet_01v8 ad=0.109 pd=1.36 as=0.066 ps=0.745 w=0.42 l=0.15
X172 VPWR tdc0.w_ring_norsz[3] a_23201_10927# VPWR sky130_fd_pr__pfet_01v8_hvt ad=0.26 pd=2.52 as=0.105 ps=1.21 w=1 l=0.15
X173 VPWR a_11950_14165# a_11877_14191# VPWR sky130_fd_pr__pfet_01v8_hvt ad=0.179 pd=1.26 as=0.0767 ps=0.785 w=0.42 l=0.15
X174 VGND tdc0.w_ring_norsz[26] a_19255_12015# VGND sky130_fd_pr__nfet_01v8 ad=0.0754 pd=0.81 as=0.135 ps=1.56 w=0.52 l=0.15
X176 VGND a_30039_7387# a_29997_7119# VGND sky130_fd_pr__nfet_01v8 ad=0.109 pd=1.36 as=0.066 ps=0.745 w=0.42 l=0.15
X177 a_14090_9295# _083_ VGND VGND sky130_fd_pr__nfet_01v8 ad=0.0878 pd=0.92 as=0.257 ps=1.44 w=0.65 l=0.15
X178 VPWR tdc0.w_ring_norsz[10] a_24775_12559# VPWR sky130_fd_pr__pfet_01v8_hvt ad=0.115 pd=1.08 as=0.205 ps=2.1 w=0.79 l=0.15
X179 VGND net8 a_16495_3855# VGND sky130_fd_pr__nfet_01v8 ad=0.0567 pd=0.69 as=0.109 ps=1.36 w=0.42 l=0.15
X180 VGND net41 tdc0.w_ring_int_norsz[10] VGND sky130_fd_pr__nfet_01v8 ad=0.169 pd=1.82 as=0.0878 ps=0.92 w=0.65 l=0.15
X181 a_2840_12533# net20 VGND VGND sky130_fd_pr__nfet_01v8 ad=0.109 pd=1.36 as=0.097 ps=0.975 w=0.42 l=0.15
X182 a_20985_3017# tdc1.r_ring_ctr[0] VPWR VPWR sky130_fd_pr__pfet_01v8_hvt ad=0.135 pd=1.27 as=0.135 ps=1.27 w=1 l=0.15
R5 VPWR tdc0.g_ring3[25].stg01_52.HI sky130_fd_pr__res_generic_po w=0.48 l=0.045
X184 VPWR _150_ a_9647_14709# VPWR sky130_fd_pr__pfet_01v8_hvt ad=0.0777 pd=0.79 as=0.0588 ps=0.7 w=0.42 l=0.15
X185 a_3484_13077# net24 VGND VGND sky130_fd_pr__nfet_01v8 ad=0.109 pd=1.36 as=0.097 ps=0.975 w=0.42 l=0.15
X186 VPWR tdc1.w_ring_norsz[4] a_18785_7369# VPWR sky130_fd_pr__pfet_01v8_hvt ad=0.26 pd=2.52 as=0.105 ps=1.21 w=1 l=0.15
X187 tdc1.w_ring_buf[17] a_23855_8751# VGND VGND sky130_fd_pr__nfet_01v8 ad=0.135 pd=1.56 as=0.0754 ps=0.81 w=0.52 l=0.15
X188 VGND tdc1.w_ring_norsz[12] tdc1.w_ring_norsz[28] VGND sky130_fd_pr__nfet_01v8 ad=0.0878 pd=0.92 as=0.0878 ps=0.92 w=0.65 l=0.15
X189 a_18605_8029# a_18335_7663# a_18501_7663# VGND sky130_fd_pr__nfet_01v8 ad=0.0441 pd=0.63 as=0.109 ps=1.36 w=0.42 l=0.15
X190 a_15701_8457# _064_ VPWR VPWR sky130_fd_pr__pfet_01v8_hvt ad=0.135 pd=1.27 as=0.26 ps=2.52 w=1 l=0.15
X191 VGND _070_ a_18243_9071# VGND sky130_fd_pr__nfet_01v8 ad=0.0878 pd=0.92 as=0.0878 ps=0.92 w=0.65 l=0.15
X192 a_19315_15823# a_18869_15823# a_19219_15823# VGND sky130_fd_pr__nfet_01v8 ad=0.14 pd=1.1 as=0.0594 ps=0.69 w=0.36 l=0.15
X193 a_21095_12559# _088_ VGND VGND sky130_fd_pr__nfet_01v8 ad=0.091 pd=0.93 as=0.101 ps=0.96 w=0.65 l=0.15
X195 VPWR _195_ _037_ VPWR sky130_fd_pr__pfet_01v8_hvt ad=0.26 pd=2.52 as=0.135 ps=1.27 w=1 l=0.15
X196 a_28885_12393# a_28338_12137# a_28538_12292# VPWR sky130_fd_pr__pfet_01v8_hvt ad=0.0578 pd=0.695 as=0.0683 ps=0.745 w=0.42 l=0.15
X197 VPWR tdc0.w_ring_int_norsz[12] a_19881_12015# VPWR sky130_fd_pr__pfet_01v8_hvt ad=0.26 pd=2.52 as=0.135 ps=1.27 w=1 l=0.15
X198 VGND _075_ a_12793_13423# VGND sky130_fd_pr__nfet_01v8 ad=0.101 pd=0.96 as=0.114 ps=1 w=0.65 l=0.15
X199 a_25864_8457# _100_ a_25609_8457# VPWR sky130_fd_pr__pfet_01v8_hvt ad=0.155 pd=1.31 as=0.14 ps=1.28 w=1 l=0.15
X200 tdc1.r_dly_store_ring[0] a_4279_8475# VPWR VPWR sky130_fd_pr__pfet_01v8_hvt ad=0.26 pd=2.52 as=0.135 ps=1.27 w=1 l=0.15
X201 VGND net7 a_19071_3317# VGND sky130_fd_pr__nfet_01v8 ad=0.0567 pd=0.69 as=0.109 ps=1.36 w=0.42 l=0.15
X203 a_7649_8751# tdc1.w_ring_buf[16] VGND VGND sky130_fd_pr__nfet_01v8 ad=0.0813 pd=0.83 as=0.109 ps=1.36 w=0.42 l=0.15
X205 VPWR a_8527_7663# a_8695_7637# VPWR sky130_fd_pr__pfet_01v8_hvt ad=0.135 pd=1.27 as=0.27 ps=2.54 w=1 l=0.15
X206 VGND a_5507_6005# _184_ VGND sky130_fd_pr__nfet_01v8 ad=0.196 pd=1.33 as=0.169 ps=1.82 w=0.65 l=0.15
X207 VGND _126_ a_11713_6691# VGND sky130_fd_pr__nfet_01v8 ad=0.102 pd=0.99 as=0.0567 ps=0.69 w=0.42 l=0.15
X208 a_21729_12015# net24 tdc0.w_ring_norsz[27] VPWR sky130_fd_pr__pfet_01v8_hvt ad=0.135 pd=1.27 as=0.26 ps=2.52 w=1 l=0.15
X209 a_19805_3285# a_19587_3689# VPWR VPWR sky130_fd_pr__pfet_01v8_hvt ad=0.129 pd=1.18 as=0.218 ps=2.2 w=0.84 l=0.15
X210 VGND net34 a_23487_4405# VGND sky130_fd_pr__nfet_01v8 ad=0.0567 pd=0.69 as=0.109 ps=1.36 w=0.42 l=0.15
X211 VPWR a_28538_12292# a_28467_12393# VPWR sky130_fd_pr__pfet_01v8_hvt ad=0.179 pd=1.26 as=0.109 ps=1.08 w=0.75 l=0.15
X212 VGND tdc0.w_ring_norsz[11] tdc0.w_ring_int_norsz[12] VGND sky130_fd_pr__nfet_01v8 ad=0.169 pd=1.82 as=0.0878 ps=0.92 w=0.65 l=0.15
X213 a_7400_6031# a_7001_6031# a_7274_6397# VGND sky130_fd_pr__nfet_01v8 ad=0.0696 pd=0.765 as=0.0621 ps=0.705 w=0.36 l=0.15
X214 net7 a_6980_4917# VGND VGND sky130_fd_pr__nfet_01v8 ad=0.0878 pd=0.92 as=0.172 ps=1.83 w=0.65 l=0.15
X215 a_16826_9813# a_16658_9839# VGND VGND sky130_fd_pr__nfet_01v8 ad=0.0989 pd=0.995 as=0.121 ps=1.09 w=0.64 l=0.15
X216 VPWR _038_ a_8451_15797# VPWR sky130_fd_pr__pfet_01v8_hvt ad=0.0819 pd=0.81 as=0.0567 ps=0.69 w=0.42 l=0.15
X218 a_23021_8457# tdc1.w_ring_norsz[17] a_22937_8457# VPWR sky130_fd_pr__pfet_01v8_hvt ad=0.135 pd=1.27 as=0.135 ps=1.27 w=1 l=0.15
R6 tt_um_hpretl_tt06_tdc_v2_78.HI VPWR sky130_fd_pr__res_generic_po w=0.48 l=0.045
X220 _080_ a_19631_8867# VGND VGND sky130_fd_pr__nfet_01v8 ad=0.176 pd=1.84 as=0.102 ps=0.99 w=0.65 l=0.15
X221 tdc0.r_dly_store_ring[2] a_24887_11989# VPWR VPWR sky130_fd_pr__pfet_01v8_hvt ad=0.26 pd=2.52 as=0.135 ps=1.27 w=1 l=0.15
X222 _039_ _195_ VPWR VPWR sky130_fd_pr__pfet_01v8_hvt ad=0.135 pd=1.27 as=0.26 ps=2.52 w=1 l=0.15
X225 a_17673_8573# a_17139_8207# a_17578_8573# VPWR sky130_fd_pr__pfet_01v8_hvt ad=0.0767 pd=0.785 as=0.0683 ps=0.745 w=0.42 l=0.15
X226 VPWR a_25071_10901# a_24987_10927# VPWR sky130_fd_pr__pfet_01v8_hvt ad=0.111 pd=1.37 as=0.0882 ps=0.84 w=0.42 l=0.15
X227 a_19805_15279# tdc0.r_ring_ctr[1] a_19723_15279# VPWR sky130_fd_pr__pfet_01v8_hvt ad=0.135 pd=1.27 as=0.26 ps=2.52 w=1 l=0.15
X228 a_26701_8751# tdc1.w_ring_norsz[9] a_26617_8751# VPWR sky130_fd_pr__pfet_01v8_hvt ad=0.135 pd=1.27 as=0.135 ps=1.27 w=1 l=0.15
X229 a_19034_10901# a_18866_10927# VGND VGND sky130_fd_pr__nfet_01v8 ad=0.0989 pd=0.995 as=0.121 ps=1.09 w=0.64 l=0.15
X230 tdc0.r_dly_store_ring[2] a_24887_11989# VGND VGND sky130_fd_pr__nfet_01v8 ad=0.169 pd=1.82 as=0.0878 ps=0.92 w=0.65 l=0.15
X232 a_7275_15279# _039_ VPWR VPWR sky130_fd_pr__pfet_01v8_hvt ad=0.109 pd=1.36 as=0.0703 ps=0.755 w=0.42 l=0.15
X233 a_15703_7485# a_14839_7119# a_15446_7231# VPWR sky130_fd_pr__pfet_01v8_hvt ad=0.0567 pd=0.69 as=0.109 ps=1.08 w=0.42 l=0.15
X234 a_8573_6575# net38 tdc1.w_ring_int_norsz[15] VPWR sky130_fd_pr__pfet_01v8_hvt ad=0.105 pd=1.21 as=0.26 ps=2.52 w=1 l=0.15
X235 VGND a_11655_6397# a_11823_6299# VGND sky130_fd_pr__nfet_01v8 ad=0.0878 pd=0.92 as=0.169 ps=1.82 w=0.65 l=0.15
X236 net17 a_27036_7637# VPWR VPWR sky130_fd_pr__pfet_01v8_hvt ad=0.135 pd=1.27 as=0.265 ps=2.53 w=1 l=0.15
X238 a_12077_16341# a_11859_16745# VPWR VPWR sky130_fd_pr__pfet_01v8_hvt ad=0.129 pd=1.18 as=0.218 ps=2.2 w=0.84 l=0.15
X239 VGND a_24887_11989# a_24845_12393# VGND sky130_fd_pr__nfet_01v8 ad=0.109 pd=1.36 as=0.066 ps=0.745 w=0.42 l=0.15
X240 _099_ a_18501_7663# VPWR VPWR sky130_fd_pr__pfet_01v8_hvt ad=0.26 pd=2.52 as=0.141 ps=1.33 w=1 l=0.15
X241 a_10309_5807# tdc1.r_dly_store_ring[30] a_9963_5487# VGND sky130_fd_pr__nfet_01v8 ad=0.114 pd=1 as=0.169 ps=1.82 w=0.65 l=0.15
X242 a_15333_9545# _121_ VPWR VPWR sky130_fd_pr__pfet_01v8_hvt ad=0.175 pd=1.35 as=0.135 ps=1.27 w=1 l=0.15
X243 VPWR net20 _046_ VPWR sky130_fd_pr__pfet_01v8_hvt ad=0.26 pd=2.52 as=0.135 ps=1.27 w=1 l=0.15
X244 a_3871_12925# _046_ VPWR VPWR sky130_fd_pr__pfet_01v8_hvt ad=0.109 pd=1.36 as=0.0703 ps=0.755 w=0.42 l=0.15
X245 tdc1.w_ring_norsz[16] net15 a_6813_8457# VPWR sky130_fd_pr__pfet_01v8_hvt ad=0.135 pd=1.27 as=0.26 ps=2.52 w=1 l=0.15
X248 a_23074_15279# a_21997_15285# a_22912_15657# VPWR sky130_fd_pr__pfet_01v8_hvt ad=0.0567 pd=0.69 as=0.0588 ps=0.7 w=0.42 l=0.15
X249 VPWR a_22926_10357# a_22855_10383# VPWR sky130_fd_pr__pfet_01v8_hvt ad=0.179 pd=1.26 as=0.109 ps=1.08 w=0.75 l=0.15
X250 a_15627_14709# tdc0.r_ring_ctr[9] VPWR VPWR sky130_fd_pr__pfet_01v8_hvt ad=0.0735 pd=0.77 as=0.0777 ps=0.79 w=0.42 l=0.15
X251 VPWR tdc1.r_ring_ctr[1] a_21279_4765# VPWR sky130_fd_pr__pfet_01v8_hvt ad=0.0777 pd=0.79 as=0.0735 ps=0.77 w=0.42 l=0.15
X253 tdc0.r_dly_store_ctr[3] a_24887_15003# VPWR VPWR sky130_fd_pr__pfet_01v8_hvt ad=0.26 pd=2.52 as=0.135 ps=1.27 w=1 l=0.15
X254 VPWR tdc1.w_ring_norsz[20] a_22741_6281# VPWR sky130_fd_pr__pfet_01v8_hvt ad=0.26 pd=2.52 as=0.105 ps=1.21 w=1 l=0.15
X255 a_4582_6397# a_3505_6031# a_4420_6031# VPWR sky130_fd_pr__pfet_01v8_hvt ad=0.0567 pd=0.69 as=0.0588 ps=0.7 w=0.42 l=0.15
X256 VPWR net23 a_19255_14735# VPWR sky130_fd_pr__pfet_01v8_hvt ad=0.149 pd=1.33 as=0.166 ps=1.8 w=0.64 l=0.15
X257 tdc0.w_ring_int_norsz[16] tdc0.w_ring_norsz[15] VGND VGND sky130_fd_pr__nfet_01v8 ad=0.0878 pd=0.92 as=0.169 ps=1.82 w=0.65 l=0.15
X260 VGND net61 tdc1.w_ring_int_norsz[16] VGND sky130_fd_pr__nfet_01v8 ad=0.169 pd=1.82 as=0.0878 ps=0.92 w=0.65 l=0.15
X261 VPWR a_17323_8759# net31 VPWR sky130_fd_pr__pfet_01v8_hvt ad=0.265 pd=2.53 as=0.135 ps=1.27 w=1 l=0.15
X265 a_11509_16373# a_11343_16373# VGND VGND sky130_fd_pr__nfet_01v8 ad=0.109 pd=1.36 as=0.0567 ps=0.69 w=0.42 l=0.15
X266 _090_ a_21095_12559# VGND VGND sky130_fd_pr__nfet_01v8 ad=0.172 pd=1.83 as=0.26 ps=1.45 w=0.65 l=0.15
X269 a_14442_9295# _193_ VGND VGND sky130_fd_pr__nfet_01v8 ad=0.0878 pd=0.92 as=0.114 ps=1 w=0.65 l=0.15
X270 a_22070_15823# _033_ VGND VGND sky130_fd_pr__nfet_01v8 ad=0.064 pd=0.725 as=0.125 ps=1.01 w=0.42 l=0.15
X273 VGND a_28694_7637# a_28652_8041# VGND sky130_fd_pr__nfet_01v8 ad=0.121 pd=1.09 as=0.0696 ps=0.765 w=0.42 l=0.15
X274 a_9240_13481# a_8841_13109# a_9114_13103# VGND sky130_fd_pr__nfet_01v8 ad=0.0696 pd=0.765 as=0.0621 ps=0.705 w=0.36 l=0.15
X275 VGND a_17923_12234# tdc0.w_ring_buf[9] VGND sky130_fd_pr__nfet_01v8 ad=0.0754 pd=0.81 as=0.135 ps=1.56 w=0.52 l=0.15
X276 a_12337_4405# a_12171_4405# VGND VGND sky130_fd_pr__nfet_01v8 ad=0.109 pd=1.36 as=0.0567 ps=0.69 w=0.42 l=0.15
X277 a_17627_9661# a_16845_9295# a_17543_9661# VPWR sky130_fd_pr__pfet_01v8_hvt ad=0.0882 pd=0.84 as=0.0567 ps=0.69 w=0.42 l=0.15
X278 a_9103_4659# net16 VPWR VPWR sky130_fd_pr__pfet_01v8_hvt ad=0.265 pd=2.53 as=0.165 ps=1.33 w=1 l=0.15
X279 a_19715_14985# tdc0.r_ring_ctr[0] VPWR VPWR sky130_fd_pr__pfet_01v8_hvt ad=0.14 pd=1.28 as=0.147 ps=1.29 w=1 l=0.15
X280 VGND a_17682_13621# a_17611_13647# VGND sky130_fd_pr__nfet_01v8 ad=0.121 pd=1.09 as=0.0989 ps=0.995 w=0.64 l=0.15
X281 a_8193_13481# a_7203_13109# a_8067_13103# VGND sky130_fd_pr__nfet_01v8 ad=0.066 pd=0.745 as=0.0684 ps=0.74 w=0.36 l=0.15
X283 a_29614_7231# a_29446_7485# VPWR VPWR sky130_fd_pr__pfet_01v8_hvt ad=0.109 pd=1.08 as=0.179 ps=1.26 w=0.75 l=0.15
X286 VPWR a_15627_14709# _155_ VPWR sky130_fd_pr__pfet_01v8_hvt ad=0.312 pd=1.68 as=0.26 ps=2.52 w=1 l=0.15
X287 _103_ a_23947_12809# VGND VGND sky130_fd_pr__nfet_01v8 ad=0.169 pd=1.82 as=0.101 ps=0.96 w=0.65 l=0.15
X288 VPWR net8 a_16495_3855# VPWR sky130_fd_pr__pfet_01v8_hvt ad=0.0864 pd=0.91 as=0.166 ps=1.8 w=0.64 l=0.15
X289 a_4073_6273# a_3855_6031# VPWR VPWR sky130_fd_pr__pfet_01v8_hvt ad=0.129 pd=1.18 as=0.218 ps=2.2 w=0.84 l=0.15
X290 a_8527_7663# a_7663_7669# a_8270_7637# VPWR sky130_fd_pr__pfet_01v8_hvt ad=0.0567 pd=0.69 as=0.109 ps=1.08 w=0.42 l=0.15
X291 VGND net32 a_21647_13647# VGND sky130_fd_pr__nfet_01v8 ad=0.0567 pd=0.69 as=0.109 ps=1.36 w=0.42 l=0.15
X292 a_7810_13077# a_7642_13103# VPWR VPWR sky130_fd_pr__pfet_01v8_hvt ad=0.109 pd=1.08 as=0.179 ps=1.26 w=0.75 l=0.15
X293 VPWR tdc1.w_ring_norsz[19] a_23855_6031# VPWR sky130_fd_pr__pfet_01v8_hvt ad=0.115 pd=1.08 as=0.205 ps=2.1 w=0.79 l=0.15
X294 tdc0.r_dly_store_ring[28] a_19459_10901# VGND VGND sky130_fd_pr__nfet_01v8 ad=0.169 pd=1.82 as=0.0878 ps=0.92 w=0.65 l=0.15
X295 a_29614_7231# a_29446_7485# VGND VGND sky130_fd_pr__nfet_01v8 ad=0.0989 pd=0.995 as=0.121 ps=1.09 w=0.64 l=0.15
X296 _065_ a_16771_8751# VGND VGND sky130_fd_pr__nfet_01v8 ad=0.0588 pd=0.7 as=0.0703 ps=0.755 w=0.42 l=0.15
X297 _187_ a_12815_8751# VPWR VPWR sky130_fd_pr__pfet_01v8_hvt ad=0.26 pd=2.52 as=0.155 ps=1.31 w=1 l=0.15
X298 VPWR net9 a_18703_15823# VPWR sky130_fd_pr__pfet_01v8_hvt ad=0.0864 pd=0.91 as=0.166 ps=1.8 w=0.64 l=0.15
X299 uo_out[2] a_26420_11721# VPWR VPWR sky130_fd_pr__pfet_01v8_hvt ad=0.14 pd=1.28 as=0.15 ps=1.3 w=1 l=0.15
X300 VPWR a_10443_11989# a_10359_12015# VPWR sky130_fd_pr__pfet_01v8_hvt ad=0.111 pd=1.37 as=0.0882 ps=0.84 w=0.42 l=0.15
X301 VGND net22 a_18703_14735# VGND sky130_fd_pr__nfet_01v8 ad=0.0878 pd=0.92 as=0.169 ps=1.82 w=0.65 l=0.15
X302 a_6357_12559# a_6191_12559# VGND VGND sky130_fd_pr__nfet_01v8 ad=0.109 pd=1.36 as=0.0567 ps=0.69 w=0.42 l=0.15
X303 VGND _039_ a_7429_15645# VGND sky130_fd_pr__nfet_01v8 ad=0.135 pd=1.15 as=0.0441 ps=0.63 w=0.42 l=0.15
X304 a_25765_5865# a_24775_5493# a_25639_5487# VGND sky130_fd_pr__nfet_01v8 ad=0.066 pd=0.745 as=0.0684 ps=0.74 w=0.36 l=0.15
X305 VPWR a_25899_13077# a_25815_13103# VPWR sky130_fd_pr__pfet_01v8_hvt ad=0.111 pd=1.37 as=0.0882 ps=0.84 w=0.42 l=0.15
X307 a_12231_14735# a_11785_14735# a_12135_14735# VGND sky130_fd_pr__nfet_01v8 ad=0.14 pd=1.1 as=0.0594 ps=0.69 w=0.36 l=0.15
X308 a_7642_13103# a_7369_13109# a_7557_13103# VPWR sky130_fd_pr__pfet_01v8_hvt ad=0.0683 pd=0.745 as=0.0578 ps=0.695 w=0.42 l=0.15
X309 VPWR a_19291_10927# a_19459_10901# VPWR sky130_fd_pr__pfet_01v8_hvt ad=0.135 pd=1.27 as=0.27 ps=2.54 w=1 l=0.15