* PEX produced on Fri Mar 29 11:56:26 PM CET 2024 using /foss/tools/osic-multitool/iic-pex.sh with m=1 and s=1
* NGSPICE file created from tt_um_hpretl_tt06_tdc_v2.ext - technology: sky130A

.subckt tt_um_hpretl_tt06_tdc_v2 clk ena rst_n ui_in[3] ui_in[5] ui_in[6] ui_in[7]
+ uio_in[0] uio_in[1] uio_in[2] uio_in[3] uio_in[4] uio_in[5] uio_in[6] uio_in[7]
+ uio_oe[6] uo_out[0] uo_out[3] uo_out[5] uo_out[6] uo_out[7] ui_in[0] ui_in[2] uio_out[1]
+ ui_in[4] uio_out[0] uo_out[1] uio_oe[5] uio_out[6] uio_oe[3] uio_out[5] uio_oe[2]
+ uio_out[7] uio_oe[7] uio_out[4] uio_oe[4] uio_out[3] uio_oe[0] uio_oe[1] uio_out[2]
+ uo_out[4] uo_out[2] ui_in[1] VPWR VGND
X0 VPWR a_19751_15279 a_19919_15253 VPWR sky130_fd_pr__pfet_01v8_hvt ad=0.135 pd=1.27 as=0.27 ps=2.54 w=1 l=0.15
X1 VGND a_14894_19199 a_14852_19087 VGND sky130_fd_pr__nfet_01v8 ad=0.121 pd=1.09 as=0.0696 ps=0.765 w=0.42 l=0.15
X2 VPWR _052_ a_26575_13077 VPWR sky130_fd_pr__pfet_01v8_hvt ad=0.0819 pd=0.81 as=0.0567 ps=0.69 w=0.42 l=0.15
X3 VGND a_9004_20149 net21 VGND sky130_fd_pr__nfet_01v8 ad=0.097 pd=0.975 as=0.0878 ps=0.92 w=0.65 l=0.15
X4 VPWR tdc1.r_ring_ctr0 a_28529_12015 VPWR sky130_fd_pr__pfet_01v8_hvt ad=0.26 pd=2.52 as=0.135 ps=1.27 w=1 l=0.15
X6 VPWR a_18723_19605 a_18639_19631 VPWR sky130_fd_pr__pfet_01v8_hvt ad=0.111 pd=1.37 as=0.0882 ps=0.84 w=0.42 l=0.15
X7 VGND net33 a_21463_11471 VGND sky130_fd_pr__nfet_01v8 ad=0.0567 pd=0.69 as=0.109 ps=1.36 w=0.42 l=0.15
X8 tdc1.r_dly_store_ring13 a_30591_18267 VGND VGND sky130_fd_pr__nfet_01v8 ad=0.169 pd=1.82 as=0.0878 ps=0.92 w=0.65 l=0.15
X13 VPWR a_19899_18543 net15 VPWR sky130_fd_pr__pfet_01v8_hvt ad=0.26 pd=2.52 as=0.135 ps=1.27 w=1 l=0.15
X14 a_29887_18775 a_30178_18665 a_30129_18543 VPWR sky130_fd_pr__pfet_01v8_hvt ad=0.0567 pd=0.69 as=0.0882 ps=0.84 w=0.42 l=0.15
X15 a_15511_20719 a_14729_20725 a_15427_20719 VPWR sky130_fd_pr__pfet_01v8_hvt ad=0.0882 pd=0.84 as=0.0567 ps=0.69 w=0.42 l=0.15
X16 a_25593_20719 net42 tdc1.w_ring_int_norsz1 VPWR sky130_fd_pr__pfet_01v8_hvt ad=0.105 pd=1.21 as=0.26 ps=2.52 w=1 l=0.15
X17 _026_ _170_ a_26689_14511 VGND sky130_fd_pr__nfet_01v8 ad=0.25 pd=1.42 as=0.0878 ps=0.92 w=0.65 l=0.15
X19 a_22917_19637 a_22751_19637 VGND VGND sky130_fd_pr__nfet_01v8 ad=0.109 pd=1.36 as=0.0567 ps=0.69 w=0.42 l=0.15
X20 a_24113_10383 a_23947_10383 VGND VGND sky130_fd_pr__nfet_01v8 ad=0.109 pd=1.36 as=0.0567 ps=0.69 w=0.42 l=0.15
X21 VGND a_3851_13621 _002_ VGND sky130_fd_pr__nfet_01v8 ad=0.169 pd=1.82 as=0.169 ps=1.82 w=0.65 l=0.15
X22 a_26141_14735 tdc1.r_ring_ctr5 VGND VGND sky130_fd_pr__nfet_01v8 ad=0.0813 pd=0.83 as=0.109 ps=1.36 w=0.42 l=0.15
X23 VPWR a_17208_20149 uo_out[1] VPWR sky130_fd_pr__pfet_01v8_hvt ad=0.26 pd=2.52 as=0.135 ps=1.27 w=1 l=0.15
X24 a_7423_13103 a_6725_13109 a_7166_13077 VGND sky130_fd_pr__nfet_01v8 ad=0.0684 pd=0.74 as=0.0989 ps=0.995 w=0.36 l=0.15
X25 VGND a_3571_19252 tdc0.w_dly_stop3 VGND sky130_fd_pr__nfet_01v8 ad=0.0754 pd=0.81 as=0.135 ps=1.56 w=0.52 l=0.15
X27 a_28997_16367 net17 tdc1.w_ring_norsz28 VPWR sky130_fd_pr__pfet_01v8_hvt ad=0.135 pd=1.27 as=0.26 ps=2.52 w=1 l=0.15
X29 a_2413_16911 a_1223_16911 a_2304_16911 VGND sky130_fd_pr__nfet_01v8 ad=0.0669 pd=0.75 as=0.0711 ps=0.755 w=0.36 l=0.15
X30 a_7710_10749 a_6633_10383 a_7548_10383 VPWR sky130_fd_pr__pfet_01v8_hvt ad=0.0567 pd=0.69 as=0.0588 ps=0.7 w=0.42 l=0.15
X31 a_3946_15935 a_3778_16189 VGND VGND sky130_fd_pr__nfet_01v8 ad=0.0989 pd=0.995 as=0.121 ps=1.09 w=0.64 l=0.15
X32 a_11580_11293 _009_ VGND VGND sky130_fd_pr__nfet_01v8 ad=0.066 pd=0.745 as=0.221 ps=1.89 w=0.42 l=0.15
X35 a_24571_10749 _056_ VPWR VPWR sky130_fd_pr__pfet_01v8_hvt ad=0.109 pd=1.36 as=0.0703 ps=0.755 w=0.42 l=0.15
X36 VGND a_27403_17973 net24 VGND sky130_fd_pr__nfet_01v8 ad=0.0683 pd=0.745 as=0.0567 ps=0.69 w=0.42 l=0.15
X37 a_22178_17277 a_21739_16911 a_22093_16911 VGND sky130_fd_pr__nfet_01v8 ad=0.0621 pd=0.705 as=0.0813 ps=0.83 w=0.36 l=0.15
X39 a_27135_15797 net36 VGND VGND sky130_fd_pr__nfet_01v8 ad=0.109 pd=1.36 as=0.0567 ps=0.69 w=0.42 l=0.15
X41 VPWR net29 a_10975_12021 VPWR sky130_fd_pr__pfet_01v8_hvt ad=0.0864 pd=0.91 as=0.166 ps=1.8 w=0.64 l=0.15
X42 tdc1.w_ring_buf31 a_26983_20175 VPWR VPWR sky130_fd_pr__pfet_01v8_hvt ad=0.205 pd=2.1 as=0.115 ps=1.08 w=0.79 l=0.15
X43 tdc1.r_ring_ctr7 a_25571_12319 VGND VGND sky130_fd_pr__nfet_01v8 ad=0.169 pd=1.82 as=0.209 ps=2.02 w=0.65 l=0.15
X44 VPWR tdc0.w_dly_stop5 a_7111_17999 VPWR sky130_fd_pr__pfet_01v8_hvt ad=0.162 pd=1.33 as=0.265 ps=2.53 w=1 l=0.15
X45 a_17596_20425 _089_ a_17208_20149 VPWR sky130_fd_pr__pfet_01v8_hvt ad=0.175 pd=1.35 as=0.135 ps=1.27 w=1 l=0.15
X46 a_14857_17753 _076_ VGND VGND sky130_fd_pr__nfet_01v8 ad=0.109 pd=1.36 as=0.145 ps=1.11 w=0.42 l=0.15
X47 VGND a_16825_15797 _077_ VGND sky130_fd_pr__nfet_01v8 ad=0.257 pd=1.44 as=0.169 ps=1.82 w=0.65 l=0.15
X48 uo_out[6] a_13344_20693 VGND VGND sky130_fd_pr__nfet_01v8 ad=0.0878 pd=0.92 as=0.0878 ps=0.92 w=0.65 l=0.15
X49 a_25502_15556 a_25295_15497 a_25678_15279 VPWR sky130_fd_pr__pfet_01v8_hvt ad=0.0683 pd=0.745 as=0.0767 ps=0.785 w=0.42 l=0.15
R0 VPWR tt_um_hpretl_tt06_tdc_v2_85.HI sky130_fd_pr__res_generic_po w=0.48 l=0.045
X52 a_22067_13335 a_22351_13321 a_22286_13469 VGND sky130_fd_pr__nfet_01v8 ad=0.0684 pd=0.74 as=0.066 ps=0.745 w=0.36 l=0.15
R1 uio_oe[7] VGND sky130_fd_pr__res_generic_po w=0.48 l=0.045
X53 VGND _060_ a_17181_10383 VGND sky130_fd_pr__nfet_01v8 ad=0.135 pd=1.15 as=0.0441 ps=0.63 w=0.42 l=0.15
X55 VPWR _099_ a_17044_17161 VPWR sky130_fd_pr__pfet_01v8_hvt ad=0.135 pd=1.27 as=0.175 ps=1.35 w=1 l=0.15
X57 VPWR a_12375_13915 a_12291_14013 VPWR sky130_fd_pr__pfet_01v8_hvt ad=0.111 pd=1.37 as=0.0882 ps=0.84 w=0.42 l=0.15
X59 net16 a_17567_10099 VGND VGND sky130_fd_pr__nfet_01v8 ad=0.0588 pd=0.7 as=0.122 ps=1.42 w=0.42 l=0.15
X60 VPWR tdc0.w_ring_norsz8 a_11435_20175 VPWR sky130_fd_pr__pfet_01v8_hvt ad=0.115 pd=1.08 as=0.205 ps=2.1 w=0.79 l=0.15
X61 VGND _145_ _148_ VGND sky130_fd_pr__nfet_01v8 ad=0.169 pd=1.82 as=0.0878 ps=0.92 w=0.65 l=0.15
X62 a_25431_15657 a_25295_15497 a_25011_15511 VPWR sky130_fd_pr__pfet_01v8_hvt ad=0.109 pd=1.08 as=0.0567 ps=0.69 w=0.42 l=0.15
X66 VGND a_16991_14191 a_17159_14165 VGND sky130_fd_pr__nfet_01v8 ad=0.0878 pd=0.92 as=0.169 ps=1.82 w=0.65 l=0.15
X69 a_24571_10749 a_23947_10383 a_24463_10383 VPWR sky130_fd_pr__pfet_01v8_hvt ad=0.116 pd=0.97 as=0.0724 ps=0.765 w=0.42 l=0.15
X71 a_17961_11471 a_16771_11471 a_17852_11471 VGND sky130_fd_pr__nfet_01v8 ad=0.0669 pd=0.75 as=0.0711 ps=0.755 w=0.36 l=0.15
X73 a_24385_18249 _067_ a_24131_18249 VPWR sky130_fd_pr__pfet_01v8_hvt ad=0.135 pd=1.27 as=0.135 ps=1.27 w=1 l=0.15
X74 a_21307_15101 a_20525_14735 a_21223_15101 VPWR sky130_fd_pr__pfet_01v8_hvt ad=0.0882 pd=0.84 as=0.0567 ps=0.69 w=0.42 l=0.15
X75 VPWR tdc1.w_ring_int_norsz5 a_19237_18249 VPWR sky130_fd_pr__pfet_01v8_hvt ad=0.26 pd=2.52 as=0.135 ps=1.27 w=1 l=0.15
X76 a_16821_20502 tdc0.r_dly_store_ring1 a_16607_20502 VPWR sky130_fd_pr__pfet_01v8_hvt ad=0.0767 pd=0.785 as=0.193 ps=1.34 w=0.42 l=0.15
X77 a_21633_12015 tdc1.r_ring_ctr11 VPWR VPWR sky130_fd_pr__pfet_01v8_hvt ad=0.0578 pd=0.695 as=0.109 ps=1.36 w=0.42 l=0.15
X79 a_14799_11445 net32 VGND VGND sky130_fd_pr__nfet_01v8 ad=0.111 pd=1.37 as=0.0683 ps=0.745 w=0.42 l=0.15
X81 a_29089_18543 net42 tdc1.w_ring_int_norsz14 VPWR sky130_fd_pr__pfet_01v8_hvt ad=0.105 pd=1.21 as=0.26 ps=2.52 w=1 l=0.15
X82 VGND a_9723_12925 a_9891_12827 VGND sky130_fd_pr__nfet_01v8 ad=0.0878 pd=0.92 as=0.169 ps=1.82 w=0.65 l=0.15
X83 VPWR tdc0.r_ring_ctr11 a_4154_13897 VPWR sky130_fd_pr__pfet_01v8_hvt ad=0.26 pd=2.52 as=0.153 ps=1.3 w=1 l=0.15
X84 a_20832_16911 a_20433_16911 a_20706_17277 VGND sky130_fd_pr__nfet_01v8 ad=0.0696 pd=0.765 as=0.0621 ps=0.705 w=0.36 l=0.15
X85 a_4111_17277 a_3247_16911 a_3854_17023 VPWR sky130_fd_pr__pfet_01v8_hvt ad=0.0567 pd=0.69 as=0.109 ps=1.08 w=0.42 l=0.15
X86 VGND a_30534_16341 a_30492_16745 VGND sky130_fd_pr__nfet_01v8 ad=0.121 pd=1.09 as=0.0696 ps=0.765 w=0.42 l=0.15
X87 a_8178_14165 a_8010_14191 VGND VGND sky130_fd_pr__nfet_01v8 ad=0.0989 pd=0.995 as=0.121 ps=1.09 w=0.64 l=0.15
X88 a_25321_11247 _179_ VGND VGND sky130_fd_pr__nfet_01v8 ad=0.0878 pd=0.92 as=0.169 ps=1.82 w=0.65 l=0.15
X89 a_30250_12015 a_29173_12021 a_30088_12393 VPWR sky130_fd_pr__pfet_01v8_hvt ad=0.0567 pd=0.69 as=0.0588 ps=0.7 w=0.42 l=0.15
X90 VPWR a_7201_10625 a_7091_10749 VPWR sky130_fd_pr__pfet_01v8_hvt ad=0.0703 pd=0.755 as=0.116 ps=0.97 w=0.42 l=0.15
X91 a_22351_13321 net33 VGND VGND sky130_fd_pr__nfet_01v8 ad=0.109 pd=1.36 as=0.0567 ps=0.69 w=0.42 l=0.15
X92 a_13861_17161 _116_ VPWR VPWR sky130_fd_pr__pfet_01v8_hvt ad=0.175 pd=1.35 as=0.135 ps=1.27 w=1 l=0.15
X93 a_11582_11989 a_11414_12015 VGND VGND sky130_fd_pr__nfet_01v8 ad=0.0989 pd=0.995 as=0.121 ps=1.09 w=0.64 l=0.15
X94 a_24294_15101 a_23855_14735 a_24209_14735 VGND sky130_fd_pr__nfet_01v8 ad=0.0621 pd=0.705 as=0.0813 ps=0.83 w=0.36 l=0.15
X95 tdc0.w_ring_buf13 a_6927_19087 VGND VGND sky130_fd_pr__nfet_01v8 ad=0.135 pd=1.56 as=0.0754 ps=0.81 w=0.52 l=0.15
X97 a_19951_11159 _184_ VPWR VPWR sky130_fd_pr__pfet_01v8_hvt ad=0.195 pd=1.39 as=0.327 ps=1.65 w=1 l=0.15
X98 tdc1.w_ring_buf21 a_19071_18543 VGND VGND sky130_fd_pr__nfet_01v8 ad=0.135 pd=1.56 as=0.0754 ps=0.81 w=0.52 l=0.15
X100 VGND a_9374_15935 a_9332_15823 VGND sky130_fd_pr__nfet_01v8 ad=0.121 pd=1.09 as=0.0696 ps=0.765 w=0.42 l=0.15
X101 a_9631_16189 a_8767_15823 a_9374_15935 VPWR sky130_fd_pr__pfet_01v8_hvt ad=0.0567 pd=0.69 as=0.109 ps=1.08 w=0.42 l=0.15
X102 a_5445_19631 net19 tdc0.w_ring_norsz15 VPWR sky130_fd_pr__pfet_01v8_hvt ad=0.135 pd=1.27 as=0.26 ps=2.52 w=1 l=0.15
X105 a_10129_17161 tdc0.w_ring_norsz3 a_10045_17161 VPWR sky130_fd_pr__pfet_01v8_hvt ad=0.135 pd=1.27 as=0.135 ps=1.27 w=1 l=0.15
X106 tdc0.w_ring_buf10 a_9135_14735 VGND VGND sky130_fd_pr__nfet_01v8 ad=0.135 pd=1.56 as=0.0754 ps=0.81 w=0.52 l=0.15
X107 VGND tdc0.w_ring_norsz29 tdc0.w_ring_norsz13 VGND sky130_fd_pr__nfet_01v8 ad=0.0878 pd=0.92 as=0.0878 ps=0.92 w=0.65 l=0.15
X108 a_16367_12559 a_16017_12559 a_16272_12559 VPWR sky130_fd_pr__pfet_01v8_hvt ad=0.0724 pd=0.765 as=0.0651 ps=0.73 w=0.42 l=0.15
X109 a_20533_19337 net71 tdc1.w_ring_int_norsz24 VPWR sky130_fd_pr__pfet_01v8_hvt ad=0.105 pd=1.21 as=0.26 ps=2.52 w=1 l=0.15
X110 tdc0.w_ring_int_norsz9 net39 VGND VGND sky130_fd_pr__nfet_01v8 ad=0.0878 pd=0.92 as=0.169 ps=1.82 w=0.65 l=0.15
X111 a_17853_13647 a_16863_13647 a_17727_14013 VGND sky130_fd_pr__nfet_01v8 ad=0.066 pd=0.745 as=0.0684 ps=0.74 w=0.36 l=0.15
X112 a_10325_18249 tdc0.w_ring_norsz4 a_10241_18249 VPWR sky130_fd_pr__pfet_01v8_hvt ad=0.135 pd=1.27 as=0.135 ps=1.27 w=1 l=0.15
X113 a_23891_20719 a_23193_20725 a_23634_20693 VGND sky130_fd_pr__nfet_01v8 ad=0.0684 pd=0.74 as=0.0989 ps=0.995 w=0.36 l=0.15
X114 _003_ a_863_13897 a_1113_13897 VPWR sky130_fd_pr__pfet_01v8_hvt ad=0.3 pd=2.6 as=0.26 ps=2.52 w=1 l=0.15
X116 a_12805_17161 tdc0.r_dly_store_ring28 a_12723_17161 VPWR sky130_fd_pr__pfet_01v8_hvt ad=0.135 pd=1.27 as=0.26 ps=2.52 w=1 l=0.15
X117 a_18114_13077 a_17946_13103 VGND VGND sky130_fd_pr__nfet_01v8 ad=0.0989 pd=0.995 as=0.121 ps=1.09 w=0.64 l=0.15
X118 a_14166_20719 _076_ VPWR VPWR sky130_fd_pr__pfet_01v8_hvt ad=0.135 pd=1.27 as=0.175 ps=1.35 w=1 l=0.15
X121 a_13603_11445 tdc0.r_ring_ctr1 a_14001_11471 VGND sky130_fd_pr__nfet_01v8 ad=0.109 pd=1.36 as=0.0609 ps=0.71 w=0.42 l=0.15
X123 a_27717_11713 a_27499_11471 VGND VGND sky130_fd_pr__nfet_01v8 ad=0.0999 pd=0.985 as=0.135 ps=1.15 w=0.64 l=0.15
X124 a_26721_12381 a_26686_12147 a_26483_11989 VGND sky130_fd_pr__nfet_01v8 ad=0.064 pd=0.725 as=0.109 ps=1.36 w=0.42 l=0.15
X125 _001_ a_1099_12744 VGND VGND sky130_fd_pr__nfet_01v8 ad=0.25 pd=1.42 as=0.208 ps=1.94 w=0.65 l=0.15
X126 a_24915_15511 a_25011_15511 VPWR VPWR sky130_fd_pr__pfet_01v8_hvt ad=0.27 pd=2.54 as=0.135 ps=1.27 w=1 l=0.15
X129 VPWR a_22495_11739 a_22411_11837 VPWR sky130_fd_pr__pfet_01v8_hvt ad=0.111 pd=1.37 as=0.0882 ps=0.84 w=0.42 l=0.15
X130 a_26895_17429 _064_ VGND VGND sky130_fd_pr__nfet_01v8 ad=0.168 pd=1.64 as=0.0588 ps=0.7 w=0.42 l=0.15
X132 a_20445_18543 tdc1.w_ring_norsz9 a_20361_18543 VPWR sky130_fd_pr__pfet_01v8_hvt ad=0.135 pd=1.27 as=0.135 ps=1.27 w=1 l=0.15
X133 a_4909_19631 net13 VPWR VPWR sky130_fd_pr__pfet_01v8_hvt ad=0.105 pd=1.21 as=0.26 ps=2.52 w=1 l=0.15
X134 VPWR tdc0.w_ring_norsz12 a_7479_17999 VPWR sky130_fd_pr__pfet_01v8_hvt ad=0.115 pd=1.08 as=0.205 ps=2.1 w=0.79 l=0.15
X136 VGND a_27346_17687 _123_ VGND sky130_fd_pr__nfet_01v8 ad=0.126 pd=1.11 as=0.165 ps=1.82 w=0.65 l=0.15
X138 VGND tdc0.w_ring_norsz14 tdc0.w_ring_norsz30 VGND sky130_fd_pr__nfet_01v8 ad=0.0878 pd=0.92 as=0.0878 ps=0.92 w=0.65 l=0.15
X139 a_22178_17277 a_21905_16911 a_22093_16911 VPWR sky130_fd_pr__pfet_01v8_hvt ad=0.0683 pd=0.745 as=0.0578 ps=0.695 w=0.42 l=0.15
X140 net35 a_23907_21237 VGND VGND sky130_fd_pr__nfet_01v8 ad=0.0567 pd=0.69 as=0.109 ps=1.36 w=0.42 l=0.15
X141 VPWR net20 _045_ VPWR sky130_fd_pr__pfet_01v8_hvt ad=0.26 pd=2.52 as=0.135 ps=1.27 w=1 l=0.15
X142 VPWR _188_ a_18417_12809 VPWR sky130_fd_pr__pfet_01v8_hvt ad=0.26 pd=2.52 as=0.105 ps=1.21 w=1 l=0.15
X143 tdc0.w_ring_int_norsz1 tdc0.w_ring_norsz0 VGND VGND sky130_fd_pr__nfet_01v8 ad=0.0878 pd=0.92 as=0.169 ps=1.82 w=0.65 l=0.15
X144 VGND net46 tdc0.w_ring_int_norsz17 VGND sky130_fd_pr__nfet_01v8 ad=0.169 pd=1.82 as=0.0878 ps=0.92 w=0.65 l=0.15
X145 a_16831_9813 tdc1.r_ring_ctr12 VGND VGND sky130_fd_pr__nfet_01v8 ad=0.0878 pd=0.92 as=0.0878 ps=0.92 w=0.65 l=0.15
X146 VPWR a_13323_11159 _145_ VPWR sky130_fd_pr__pfet_01v8_hvt ad=0.142 pd=1.34 as=0.26 ps=2.52 w=1 l=0.15
X147 VGND _198_ _050_ VGND sky130_fd_pr__nfet_01v8 ad=0.169 pd=1.82 as=0.0878 ps=0.92 w=0.65 l=0.15
X149 a_25093_13647 a_25049_13889 a_24927_13647 VGND sky130_fd_pr__nfet_01v8 ad=0.0441 pd=0.63 as=0.14 ps=1.1 w=0.42 l=0.15
X150 tdc0.w_ring_buf12 a_7479_17999 VPWR VPWR sky130_fd_pr__pfet_01v8_hvt ad=0.205 pd=2.1 as=0.115 ps=1.08 w=0.79 l=0.15
X151 VGND a_8775_10633 _010_ VGND sky130_fd_pr__nfet_01v8 ad=0.208 pd=1.94 as=0.25 ps=1.42 w=0.65 l=0.15
X152 a_16692_18921 a_16293_18549 a_16566_18543 VGND sky130_fd_pr__nfet_01v8 ad=0.0696 pd=0.765 as=0.0621 ps=0.705 w=0.36 l=0.15
X154 a_8565_16911 a_8399_16911 VPWR VPWR sky130_fd_pr__pfet_01v8_hvt ad=0.166 pd=1.8 as=0.0864 ps=0.91 w=0.64 l=0.15
X155 VGND tdc1.w_ring_buf31 a_27689_20009 VGND sky130_fd_pr__nfet_01v8 ad=0.109 pd=1.36 as=0.0813 ps=0.83 w=0.42 l=0.15
X156 VPWR a_11915_18267 a_11831_18365 VPWR sky130_fd_pr__pfet_01v8_hvt ad=0.111 pd=1.37 as=0.0882 ps=0.84 w=0.42 l=0.15
X157 VGND net21 tdc0.w_ring_norsz3 VGND sky130_fd_pr__nfet_01v8 ad=0.0878 pd=0.92 as=0.169 ps=1.82 w=0.65 l=0.15
X158 a_7097_20175 tdc0.w_ring_buf14 VPWR VPWR sky130_fd_pr__pfet_01v8_hvt ad=0.0578 pd=0.695 as=0.109 ps=1.36 w=0.42 l=0.15
X160 a_30272_13647 a_29191_13647 a_29925_13889 VPWR sky130_fd_pr__pfet_01v8_hvt ad=0.0588 pd=0.7 as=0.129 ps=1.18 w=0.42 l=0.15
X161 VGND _198_ _049_ VGND sky130_fd_pr__nfet_01v8 ad=0.169 pd=1.82 as=0.0878 ps=0.92 w=0.65 l=0.15
X162 VPWR _076_ a_14166_20719 VPWR sky130_fd_pr__pfet_01v8_hvt ad=0.285 pd=2.57 as=0.135 ps=1.27 w=1 l=0.15
X164 _191_ a_13551_14735 VGND VGND sky130_fd_pr__nfet_01v8 ad=0.169 pd=1.82 as=0.102 ps=0.965 w=0.65 l=0.15
X166 a_11582_17023 a_11414_17277 VPWR VPWR sky130_fd_pr__pfet_01v8_hvt ad=0.109 pd=1.08 as=0.179 ps=1.26 w=0.75 l=0.15
X167 VGND _079_ a_13161_15823 VGND sky130_fd_pr__nfet_01v8 ad=0.102 pd=0.965 as=0.107 ps=0.98 w=0.65 l=0.15
X168 a_18877_17161 _083_ a_18731_17063 VPWR sky130_fd_pr__pfet_01v8_hvt ad=0.135 pd=1.27 as=0.253 ps=2.52 w=1 l=0.15
X169 a_29173_12021 a_29007_12021 VGND VGND sky130_fd_pr__nfet_01v8 ad=0.109 pd=1.36 as=0.0567 ps=0.69 w=0.42 l=0.15
X170 a_15731_16483 _073_ a_15659_16483 VPWR sky130_fd_pr__pfet_01v8_hvt ad=0.0693 pd=0.75 as=0.0441 ps=0.63 w=0.42 l=0.15
X171 a_13814_20719 _134_ a_13344_20693 VPWR sky130_fd_pr__pfet_01v8_hvt ad=0.135 pd=1.27 as=0.135 ps=1.27 w=1 l=0.15
X172 a_17673_13109 a_17507_13109 VPWR VPWR sky130_fd_pr__pfet_01v8_hvt ad=0.166 pd=1.8 as=0.0864 ps=0.91 w=0.64 l=0.15
X175 a_6917_17161 net58 tdc0.w_ring_int_norsz29 VPWR sky130_fd_pr__pfet_01v8_hvt ad=0.105 pd=1.21 as=0.26 ps=2.52 w=1 l=0.15
X176 VPWR _076_ a_16821_20502 VPWR sky130_fd_pr__pfet_01v8_hvt ad=0.158 pd=1.39 as=0.0767 ps=0.785 w=0.42 l=0.15
X180 a_12864_20719 _128_ a_12762_20719 VPWR sky130_fd_pr__pfet_01v8_hvt ad=0.125 pd=1.25 as=0.18 ps=1.36 w=1 l=0.15
X182 VGND tdc0.r_ring_ctr15 a_1047_16367 VGND sky130_fd_pr__nfet_01v8 ad=0.0878 pd=0.92 as=0.0878 ps=0.92 w=0.65 l=0.15
X183 a_10229_13897 net54 tdc0.w_ring_int_norsz25 VPWR sky130_fd_pr__pfet_01v8_hvt ad=0.105 pd=1.21 as=0.26 ps=2.52 w=1 l=0.15
X184 VGND net18 tdc1.w_ring_norsz31 VGND sky130_fd_pr__nfet_01v8 ad=0.0878 pd=0.92 as=0.169 ps=1.82 w=0.65 l=0.15
X185 tdc1.r_dly_store_ctr14 a_18539_13077 VPWR VPWR sky130_fd_pr__pfet_01v8_hvt ad=0.26 pd=2.52 as=0.135 ps=1.27 w=1 l=0.15
X186 VPWR a_15595_11989 a_15511_12015 VPWR sky130_fd_pr__pfet_01v8_hvt ad=0.111 pd=1.37 as=0.0882 ps=0.84 w=0.42 l=0.15
X188 a_15519_14013 a_14821_13647 a_15262_13759 VGND sky130_fd_pr__nfet_01v8 ad=0.0684 pd=0.74 as=0.0989 ps=0.995 w=0.36 l=0.15
X190 tdc1.r_dly_store_ctr14 a_18539_13077 VGND VGND sky130_fd_pr__nfet_01v8 ad=0.169 pd=1.82 as=0.0878 ps=0.92 w=0.65 l=0.15
X191 VGND a_14032_16911 uo_out[4] VGND sky130_fd_pr__nfet_01v8 ad=0.0878 pd=0.92 as=0.0878 ps=0.92 w=0.65 l=0.15
X193 _119_ a_12723_15823 VGND VGND sky130_fd_pr__nfet_01v8 ad=0.169 pd=1.82 as=0.102 ps=0.965 w=0.65 l=0.15
X194 tdc0.r_dly_store_ring0 a_16607_15003 VPWR VPWR sky130_fd_pr__pfet_01v8_hvt ad=0.26 pd=2.52 as=0.135 ps=1.27 w=1 l=0.15
X196 a_15904_11445 net30 VPWR VPWR sky130_fd_pr__pfet_01v8_hvt ad=0.166 pd=1.8 as=0.149 ps=1.33 w=0.64 l=0.15
X197 VGND _185_ a_18249_12335 VGND sky130_fd_pr__nfet_01v8 ad=0.169 pd=1.82 as=0.0683 ps=0.86 w=0.65 l=0.15
X198 a_2743_12711 tdc0.r_ring_ctr8 a_2977_12559 VGND sky130_fd_pr__nfet_01v8 ad=0.109 pd=1.36 as=0.0441 ps=0.63 w=0.42 l=0.15
X199 VPWR net8 a_13643_9845 VPWR sky130_fd_pr__pfet_01v8_hvt ad=0.0864 pd=0.91 as=0.166 ps=1.8 w=0.64 l=0.15
X200 a_5993_13647 tdc0.r_ring_ctr10 VGND VGND sky130_fd_pr__nfet_01v8 ad=0.0813 pd=0.83 as=0.109 ps=1.36 w=0.42 l=0.15
X203 _175_ a_24591_12559 VPWR VPWR sky130_fd_pr__pfet_01v8_hvt ad=0.26 pd=2.52 as=0.142 ps=1.34 w=1 l=0.15
X204 tdc1.w_ring_int_norsz27 tdc1.w_ring_norsz26 VGND VGND sky130_fd_pr__nfet_01v8 ad=0.0878 pd=0.92 as=0.169 ps=1.82 w=0.65 l=0.15
R2 net64 VGND sky130_fd_pr__res_generic_po w=0.48 l=0.045
X205 VPWR a_11490_18111 a_11417_18365 VPWR sky130_fd_pr__pfet_01v8_hvt ad=0.179 pd=1.26 as=0.0767 ps=0.785 w=0.42 l=0.15
X207 VGND a_18723_19605 a_18681_20009 VGND sky130_fd_pr__nfet_01v8 ad=0.109 pd=1.36 as=0.066 ps=0.745 w=0.42 l=0.15
X208 tdc0.w_ring_norsz25 net23 VGND VGND sky130_fd_pr__nfet_01v8 ad=0.169 pd=1.82 as=0.0878 ps=0.92 w=0.65 l=0.15
X209 a_21886_18517 a_21718_18543 VGND VGND sky130_fd_pr__nfet_01v8 ad=0.0989 pd=0.995 as=0.121 ps=1.09 w=0.64 l=0.15
X210 _027_ _174_ VGND VGND sky130_fd_pr__nfet_01v8 ad=0.0878 pd=0.92 as=0.169 ps=1.82 w=0.65 l=0.15
X211 a_5694_17023 a_5526_17277 VPWR VPWR sky130_fd_pr__pfet_01v8_hvt ad=0.109 pd=1.08 as=0.179 ps=1.26 w=0.75 l=0.15
X212 VGND net41 tdc1.w_ring_int_norsz10 VGND sky130_fd_pr__nfet_01v8 ad=0.169 pd=1.82 as=0.0878 ps=0.92 w=0.65 l=0.15
X213 a_23029_14735 _083_ a_22595_14887 VGND sky130_fd_pr__nfet_01v8 ad=0.0747 pd=0.88 as=0.169 ps=1.82 w=0.65 l=0.15
X214 a_8730_15253 a_8562_15279 VGND VGND sky130_fd_pr__nfet_01v8 ad=0.0989 pd=0.995 as=0.121 ps=1.09 w=0.64 l=0.15
X216 tdc0.w_ring_int_norsz18 tdc0.w_ring_norsz17 VGND VGND sky130_fd_pr__nfet_01v8 ad=0.0878 pd=0.92 as=0.169 ps=1.82 w=0.65 l=0.15
X217 VPWR a_9063_13077 a_8979_13103 VPWR sky130_fd_pr__pfet_01v8_hvt ad=0.111 pd=1.37 as=0.0882 ps=0.84 w=0.42 l=0.15
X218 VPWR a_9631_20719 a_9799_20693 VPWR sky130_fd_pr__pfet_01v8_hvt ad=0.135 pd=1.27 as=0.27 ps=2.54 w=1 l=0.15
X219 a_6998_13103 a_6559_13109 a_6913_13103 VGND sky130_fd_pr__nfet_01v8 ad=0.0621 pd=0.705 as=0.0813 ps=0.83 w=0.36 l=0.15
X221 VGND a_27251_13077 a_27182_13103 VGND sky130_fd_pr__nfet_01v8 ad=0.135 pd=1.15 as=0.0999 ps=0.985 w=0.64 l=0.15
X224 tdc1.r_dly_store_ring26 a_25163_16091 VPWR VPWR sky130_fd_pr__pfet_01v8_hvt ad=0.26 pd=2.52 as=0.135 ps=1.27 w=1 l=0.15
X225 tdc1.r_dly_store_ring22 a_17987_17429 VPWR VPWR sky130_fd_pr__pfet_01v8_hvt ad=0.26 pd=2.52 as=0.135 ps=1.27 w=1 l=0.15
X226 a_27403_14709 a_27687_14709 a_27622_14735 VGND sky130_fd_pr__nfet_01v8 ad=0.0684 pd=0.74 as=0.066 ps=0.745 w=0.36 l=0.15
X228 VGND a_15715_17674 tdc1.w_ring_buf4 VGND sky130_fd_pr__nfet_01v8 ad=0.0754 pd=0.81 as=0.135 ps=1.56 w=0.52 l=0.15
X229 VGND a_27095_13345 a_27056_13219 VGND sky130_fd_pr__nfet_01v8 ad=0.0567 pd=0.69 as=0.109 ps=1.36 w=0.42 l=0.15
X233 tdc1.r_dly_store_ring22 a_17987_17429 VGND VGND sky130_fd_pr__nfet_01v8 ad=0.169 pd=1.82 as=0.0878 ps=0.92 w=0.65 l=0.15
X234 a_25558_12015 a_24481_12021 a_25396_12393 VPWR sky130_fd_pr__pfet_01v8_hvt ad=0.0567 pd=0.69 as=0.0588 ps=0.7 w=0.42 l=0.15
X235 a_19609_14191 tdc1.w_ring_buf24 VPWR VPWR sky130_fd_pr__pfet_01v8_hvt ad=0.0578 pd=0.695 as=0.109 ps=1.36 w=0.42 l=0.15
R3 tdc0.g_ring319.stg01_48.HI VPWR sky130_fd_pr__res_generic_po w=0.48 l=0.045
X236 a_8838_17277 a_8399_16911 a_8753_16911 VGND sky130_fd_pr__nfet_01v8 ad=0.0621 pd=0.705 as=0.0813 ps=0.83 w=0.36 l=0.15
X237 VGND net14 tdc1.w_ring_norsz6 VGND sky130_fd_pr__nfet_01v8 ad=0.0878 pd=0.92 as=0.169 ps=1.82 w=0.65 l=0.15
X239 VGND a_25932_12533 net9 VGND sky130_fd_pr__nfet_01v8 ad=0.097 pd=0.975 as=0.0878 ps=0.92 w=0.65 l=0.15
X240 VPWR a_30959_16341 a_30875_16367 VPWR sky130_fd_pr__pfet_01v8_hvt ad=0.111 pd=1.37 as=0.0882 ps=0.84 w=0.42 l=0.15
X241 a_16017_12559 a_15851_12559 VGND VGND sky130_fd_pr__nfet_01v8 ad=0.109 pd=1.36 as=0.0567 ps=0.69 w=0.42 l=0.15
X242 a_11057_17455 net21 tdc0.w_ring_norsz2 VPWR sky130_fd_pr__pfet_01v8_hvt ad=0.135 pd=1.27 as=0.26 ps=2.52 w=1 l=0.15
X243 VGND a_29883_21428 net1 VGND sky130_fd_pr__nfet_01v8 ad=0.0754 pd=0.81 as=0.135 ps=1.56 w=0.52 l=0.15
X244 VPWR a_9799_20693 a_9715_20719 VPWR sky130_fd_pr__pfet_01v8_hvt ad=0.111 pd=1.37 as=0.0882 ps=0.84 w=0.42 l=0.15
X245 VGND net7 a_1315_15823 VGND sky130_fd_pr__nfet_01v8 ad=0.0567 pd=0.69 as=0.109 ps=1.36 w=0.42 l=0.15
X248 a_18455_13103 a_17673_13109 a_18371_13103 VPWR sky130_fd_pr__pfet_01v8_hvt ad=0.0882 pd=0.84 as=0.0567 ps=0.69 w=0.42 l=0.15
X249 uo_out[7] a_14172_20149 VGND VGND sky130_fd_pr__nfet_01v8 ad=0.0878 pd=0.92 as=0.182 ps=1.86 w=0.65 l=0.15
X250 VPWR a_16607_15003 a_16523_15101 VPWR sky130_fd_pr__pfet_01v8_hvt ad=0.111 pd=1.37 as=0.0882 ps=0.84 w=0.42 l=0.15
X251 _069_ a_14623_16627 VPWR VPWR sky130_fd_pr__pfet_01v8_hvt ad=0.14 pd=1.28 as=0.3 ps=2.6 w=1 l=0.15
X252 VGND net36 a_24131_15823 VGND sky130_fd_pr__nfet_01v8 ad=0.0567 pd=0.69 as=0.109 ps=1.36 w=0.42 l=0.15
X253 VGND a_14123_11989 a_14081_12393 VGND sky130_fd_pr__nfet_01v8 ad=0.109 pd=1.36 as=0.066 ps=0.745 w=0.42 l=0.15
X254 a_29913_17999 tdc1.w_ring_buf13 VPWR VPWR sky130_fd_pr__pfet_01v8_hvt ad=0.0578 pd=0.695 as=0.109 ps=1.36 w=0.42 l=0.15
X255 VPWR a_2212_14569 a_2387_14495 VPWR sky130_fd_pr__pfet_01v8_hvt ad=0.113 pd=1.38 as=0.0567 ps=0.69 w=0.42 l=0.15
X256 a_23063_14013 a_22199_13647 a_22806_13759 VPWR sky130_fd_pr__pfet_01v8_hvt ad=0.0567 pd=0.69 as=0.109 ps=1.08 w=0.42 l=0.15
X257 a_21445_18549 a_21279_18549 VPWR VPWR sky130_fd_pr__pfet_01v8_hvt ad=0.166 pd=1.8 as=0.0864 ps=0.91 w=0.64 l=0.15
X258 _144_ tdc0.r_ring_ctr1 a_13634_10383 VGND sky130_fd_pr__nfet_01v8 ad=0.091 pd=0.93 as=0.0959 ps=0.945 w=0.65 l=0.15
X259 VPWR a_5087_11471 _197_ VPWR sky130_fd_pr__pfet_01v8_hvt ad=0.135 pd=1.27 as=0.135 ps=1.27 w=1 l=0.15
X261 VGND a_23358_19605 a_23316_20009 VGND sky130_fd_pr__nfet_01v8 ad=0.121 pd=1.09 as=0.0696 ps=0.765 w=0.42 l=0.15
X262 VGND tdc1.w_ring_norsz16 a_25787_20719 VGND sky130_fd_pr__nfet_01v8 ad=0.0754 pd=0.81 as=0.135 ps=1.56 w=0.52 l=0.15
X263 a_19876_10383 a_18961_10383 a_19529_10625 VGND sky130_fd_pr__nfet_01v8 ad=0.0711 pd=0.755 as=0.0999 ps=0.985 w=0.36 l=0.15
X264 VGND net27 a_3247_16911 VGND sky130_fd_pr__nfet_01v8 ad=0.0567 pd=0.69 as=0.109 ps=1.36 w=0.42 l=0.15
X265 a_27149_11471 a_26983_11471 VGND VGND sky130_fd_pr__nfet_01v8 ad=0.109 pd=1.36 as=0.0567 ps=0.69 w=0.42 l=0.15
X266 a_14172_20149 _138_ a_14994_20175 VGND sky130_fd_pr__nfet_01v8 ad=0.0878 pd=0.92 as=0.0878 ps=0.92 w=0.65 l=0.15
X267 tdc1.r_dly_store_ring21 a_22311_18517 VPWR VPWR sky130_fd_pr__pfet_01v8_hvt ad=0.26 pd=2.52 as=0.135 ps=1.27 w=1 l=0.15
X268 a_11672_10205 _000_ VGND VGND sky130_fd_pr__nfet_01v8 ad=0.066 pd=0.745 as=0.221 ps=1.89 w=0.42 l=0.15
X270 a_12448_20719 tdc0.r_dly_store_ring6 VPWR VPWR sky130_fd_pr__pfet_01v8_hvt ad=0.28 pd=1.56 as=0.135 ps=1.27 w=1 l=0.15
X271 tdc1.r_dly_store_ctr7 a_24887_15003 VPWR VPWR sky130_fd_pr__pfet_01v8_hvt ad=0.26 pd=2.52 as=0.135 ps=1.27 w=1 l=0.15
X272 a_30263_12319 a_30088_12393 a_30442_12381 VGND sky130_fd_pr__nfet_01v8 ad=0.109 pd=1.36 as=0.064 ps=0.725 w=0.42 l=0.15
X273 a_27156_17999 tdc1.r_dly_store_ring13 a_26581_18145 VGND sky130_fd_pr__nfet_01v8 ad=0.0829 pd=0.905 as=0.185 ps=1.22 w=0.65 l=0.15
X274 a_14821_13647 a_14655_13647 VPWR VPWR sky130_fd_pr__pfet_01v8_hvt ad=0.166 pd=1.8 as=0.0864 ps=0.91 w=0.64 l=0.15
X275 a_14642_20175 _089_ VGND VGND sky130_fd_pr__nfet_01v8 ad=0.0878 pd=0.92 as=0.257 ps=1.44 w=0.65 l=0.15
X276 tdc1.r_dly_store_ring21 a_22311_18517 VGND VGND sky130_fd_pr__nfet_01v8 ad=0.169 pd=1.82 as=0.0878 ps=0.92 w=0.65 l=0.15
X277 VGND a_6319_15101 a_6487_15003 VGND sky130_fd_pr__nfet_01v8 ad=0.0878 pd=0.92 as=0.169 ps=1.82 w=0.65 l=0.15
X279 a_24681_20425 _084_ VPWR VPWR sky130_fd_pr__pfet_01v8_hvt ad=0.0693 pd=0.75 as=0.148 ps=1.34 w=0.42 l=0.15
X280 a_9577_10383 a_9411_10383 VGND VGND sky130_fd_pr__nfet_01v8 ad=0.109 pd=1.36 as=0.0567 ps=0.69 w=0.42 l=0.15
X281 VPWR tdc1.w_ring_int_norsz28 a_29081_16367 VPWR sky130_fd_pr__pfet_01v8_hvt ad=0.26 pd=2.52 as=0.135 ps=1.27 w=1 l=0.15
X283 a_30534_14165 a_30366_14191 VGND VGND sky130_fd_pr__nfet_01v8 ad=0.0989 pd=0.995 as=0.121 ps=1.09 w=0.64 l=0.15
X285 VGND net28 a_8767_15823 VGND sky130_fd_pr__nfet_01v8 ad=0.0567 pd=0.69 as=0.109 ps=1.36 w=0.42 l=0.15
X287 VPWR net30 a_15299_11471 VPWR sky130_fd_pr__pfet_01v8_hvt ad=0.115 pd=1.08 as=0.205 ps=2.1 w=0.79 l=0.15
X289 VPWR net16 _063_ VPWR sky130_fd_pr__pfet_01v8_hvt ad=0.26 pd=2.52 as=0.135 ps=1.27 w=1 l=0.15
X290 VPWR _054_ a_27304_12015 VPWR sky130_fd_pr__pfet_01v8_hvt ad=0.0703 pd=0.755 as=0.109 ps=1.36 w=0.42 l=0.15
X291 a_15427_20719 a_14729_20725 a_15170_20693 VGND sky130_fd_pr__nfet_01v8 ad=0.0684 pd=0.74 as=0.0989 ps=0.995 w=0.36 l=0.15
X292 a_22898_19199 a_22730_19453 VPWR VPWR sky130_fd_pr__pfet_01v8_hvt ad=0.109 pd=1.08 as=0.179 ps=1.26 w=0.75 l=0.15
X294 VGND _198_ _053_ VGND sky130_fd_pr__nfet_01v8 ad=0.169 pd=1.82 as=0.0878 ps=0.92 w=0.65 l=0.15
X296 a_7350_20287 a_7182_20541 VGND VGND sky130_fd_pr__nfet_01v8 ad=0.0989 pd=0.995 as=0.121 ps=1.09 w=0.64 l=0.15
X297 a_5257_19087 tdc0.w_ring_buf15 VPWR VPWR sky130_fd_pr__pfet_01v8_hvt ad=0.0578 pd=0.695 as=0.109 ps=1.36 w=0.42 l=0.15
X299 VPWR tdc1.r_ring_ctr3 a_28823_14557 VPWR sky130_fd_pr__pfet_01v8_hvt ad=0.312 pd=1.68 as=0.0588 ps=0.7 w=0.42 l=0.15
X300 a_6813_14569 a_5823_14197 a_6687_14191 VGND sky130_fd_pr__nfet_01v8 ad=0.066 pd=0.745 as=0.0684 ps=0.74 w=0.36 l=0.15
X301 a_27403_14709 a_27694_15009 a_27645_15101 VPWR sky130_fd_pr__pfet_01v8_hvt ad=0.0567 pd=0.69 as=0.0882 ps=0.84 w=0.42 l=0.15
X302 a_19494_15253 a_19326_15279 VPWR VPWR sky130_fd_pr__pfet_01v8_hvt ad=0.109 pd=1.08 as=0.179 ps=1.26 w=0.75 l=0.15
X304 a_15904_11445 net30 VGND VGND sky130_fd_pr__nfet_01v8 ad=0.109 pd=1.36 as=0.097 ps=0.975 w=0.42 l=0.15
X305 tdc1.w_dly_stop1 a_15299_11471 VPWR VPWR sky130_fd_pr__pfet_01v8_hvt ad=0.205 pd=2.1 as=0.115 ps=1.08 w=0.79 l=0.15
X306 _101_ a_13091_14191 VGND VGND sky130_fd_pr__nfet_01v8 ad=0.169 pd=1.82 as=0.101 ps=0.96 w=0.65 l=0.15
X307 a_2304_16911 a_1389_16911 a_1957_17153 VGND sky130_fd_pr__nfet_01v8 ad=0.0711 pd=0.755 as=0.0999 ps=0.985 w=0.36 l=0.15
X309 a_25225_20719 net64 tdc1.w_ring_int_norsz17 VPWR sky130_fd_pr__pfet_01v8_hvt ad=0.105 pd=1.21 as=0.26 ps=2.52 w=1 l=0.15
X310 a_12805_18543 net3 a_12723_18543 VPWR sky130_fd_pr__pfet_01v8_hvt ad=0.135 pd=1.27 as=0.26 ps=2.52 w=1 l=0.15
X311 a_7001_12559 a_6835_12559 VPWR VPWR sky130_fd_pr__pfet_01v8_hvt ad=0.166 pd=1.8 as=0.0864 ps=0.91 w=0.64 l=0.15
X312 VPWR a_16182_14847 a_16109_15101 VPWR sky130_fd_pr__pfet_01v8_hvt ad=0.179 pd=1.26 as=0.0767 ps=0.785 w=0.42 l=0.15
X313 VGND net36 a_29927_14197 VGND sky130_fd_pr__nfet_01v8 ad=0.0567 pd=0.69 as=0.109 ps=1.36 w=0.42 l=0.15
X314 tdc0.w_ring_int_norsz0 tdc0.w_ring_norsz31 VGND VGND sky130_fd_pr__nfet_01v8 ad=0.0878 pd=0.92 as=0.169 ps=1.82 w=0.65 l=0.15
X315 tdc0.w_ring_buf8 a_15483_14191 VPWR VPWR sky130_fd_pr__pfet_01v8_hvt ad=0.205 pd=2.1 as=0.115 ps=1.08 w=0.79 l=0.15
X316 VGND net7 a_1131_13109 VGND sky130_fd_pr__nfet_01v8 ad=0.0567 pd=0.69 as=0.109 ps=1.36 w=0.42 l=0.15
X318 VPWR _070_ a_15731_16483 VPWR sky130_fd_pr__pfet_01v8_hvt ad=0.148 pd=1.34 as=0.0693 ps=0.75 w=0.42 l=0.15
X319 VGND _089_ a_14642_20175 VGND sky130_fd_pr__nfet_01v8 ad=0.114 pd=1 as=0.0878 ps=0.92 w=0.65 l=0.15
X320 net8 a_9503_12015 VPWR VPWR sky130_fd_pr__pfet_01v8_hvt ad=0.135 pd=1.27 as=0.162 ps=1.33 w=1 l=0.15
X322 VGND ui_in[5] a_25879_21263 VGND sky130_fd_pr__nfet_01v8 ad=0.0754 pd=0.81 as=0.135 ps=1.56 w=0.52 l=0.15
X323 VPWR a_21791_20327 _090_ VPWR sky130_fd_pr__pfet_01v8_hvt ad=0.186 pd=1.41 as=0.26 ps=2.52 w=1 l=0.15
X324 a_25016_11721 _175_ a_24551_11623 VPWR sky130_fd_pr__pfet_01v8_hvt ad=0.105 pd=1.21 as=0.165 ps=1.33 w=1 l=0.15
X325 a_10869_12559 tdc0.r_ring_ctr4 VPWR VPWR sky130_fd_pr__pfet_01v8_hvt ad=0.0578 pd=0.695 as=0.109 ps=1.36 w=0.42 l=0.15
X326 VGND _133_ a_18703_14735 VGND sky130_fd_pr__nfet_01v8 ad=0.107 pd=0.98 as=0.169 ps=1.82 w=0.65 l=0.15
X328 VPWR a_20051_10357 a_20038_10749 VPWR sky130_fd_pr__pfet_01v8_hvt ad=0.0819 pd=0.81 as=0.0567 ps=0.69 w=0.42 l=0.15
X329 a_10593_15823 tdc0.w_ring_buf3 VGND VGND sky130_fd_pr__nfet_01v8 ad=0.0813 pd=0.83 as=0.109 ps=1.36 w=0.42 l=0.15